* NGSPICE file created from user_proj_sarlogic.ext - technology: gf180mcuD

.subckt user_proj_sarlogic CLK SC SDAC[0] SDAC[1] SDAC[2] SDAC[3] SDAC[4] SDAC[5] SDAC[6] SDAC[7] SDAC[8] XRST COMP_CLK COMP_OUT DIGITAL_OUT vccd1 vssd1
X0 vssd1 a_16569_5984 a_19300_10744 vssd1 nfet_06v0 ad=0.2344p pd=1.56u as=0.1584p ps=1.6u w=0.36u l=0.6u
X1 vccd1 a_24876_3160 a_24976_3608 vccd1 pfet_06v0 ad=0.3782p pd=1.84u as=0.3782p ps=1.84u w=1.22u l=0.5u
X2 a_31465_5512 a_29604_9880 vccd1 vccd1 pfet_06v0 ad=0.2561p pd=1.505u as=0.2561p ps=1.505u w=0.985u l=0.5u
X3 a_35424_5644 a_34420_6040 a_35220_5644 vssd1 nfet_06v0 ad=93.59999f pd=0.88u as=93.59999f ps=0.88u w=0.36u l=0.6u
X4 a_13964_7168 a_13656_7212 vccd1 vccd1 pfet_06v0 ad=0.2424p pd=1.465u as=0.2222p ps=1.89u w=0.505u l=0.5u
X5 a_6956_11351 a_6868_11448 vssd1 vssd1 nfet_06v0 ad=0.3608p pd=2.52u as=0.3608p ps=2.52u w=0.82u l=1u
X6 a_2588_10216 a_2500_10260 vssd1 vssd1 nfet_06v0 ad=0.3608p pd=2.52u as=0.3608p ps=2.52u w=0.82u l=1u
X7 vccd1 a_11279_7864 a_15492_9521 vccd1 pfet_06v0 ad=0.4015p pd=1.92u as=0.462p ps=2.98u w=1.05u l=0.5u
X8 a_21852_4076 a_21752_4032 vssd1 vssd1 nfet_06v0 ad=93.59999f pd=0.88u as=0.1584p ps=1.6u w=0.36u l=0.6u
X9 vccd1 a_24976_3608 SDAC[5] vccd1 pfet_06v0 ad=0.3782p pd=1.84u as=0.3782p ps=1.84u w=1.22u l=0.5u
X10 a_3668_4076 a_1908_4118 vccd1 vccd1 pfet_06v0 ad=0.3432p pd=2.44u as=0.45p ps=2.02u w=0.78u l=0.5u
X11 vssd1 a_15324_6608 a_13496_6366 vssd1 nfet_06v0 ad=0.1782p pd=1.69u as=0.1053p ps=0.925u w=0.405u l=0.6u
X12 a_18268_11784 a_18180_11828 vssd1 vssd1 nfet_06v0 ad=0.3608p pd=2.52u as=0.3608p ps=2.52u w=0.82u l=1u
X13 a_30387_6744 a_27935_4728 a_30199_6744 vccd1 pfet_06v0 ad=0.3159p pd=1.735u as=0.5346p ps=3.31u w=1.215u l=0.5u
X14 a_11279_7864 a_12969_9040 vccd1 vccd1 pfet_06v0 ad=0.5346p pd=3.31u as=0.5346p ps=3.31u w=1.215u l=0.5u
X15 a_11560_5600 a_2468_4822 a_13572_5176 vccd1 pfet_06v0 ad=0.4248p pd=1.94u as=0.3172p ps=1.74u w=1.22u l=0.5u
X16 a_33096_7124 a_32381_11802 vssd1 vssd1 nfet_06v0 ad=93.59999f pd=0.88u as=0.1584p ps=1.6u w=0.36u l=0.6u
X17 vccd1 a_16365_5984 a_17456_7080 vccd1 pfet_06v0 ad=0.2561p pd=1.505u as=0.2561p ps=1.505u w=0.985u l=0.5u
X18 a_26564_5176 a_17228_3197 vccd1 vccd1 pfet_06v0 ad=0.3172p pd=1.74u as=0.5368p ps=3.32u w=1.22u l=0.5u
X19 a_23107_5557 a_17640_7564 a_23127_6040 vssd1 nfet_06v0 ad=0.2119p pd=1.335u as=0.1304p ps=1.135u w=0.815u l=0.6u
X20 a_9385_7952 a_8968_7996 a_9761_7996 vssd1 nfet_06v0 ad=0.176p pd=1.68u as=0.134p ps=1.1u w=0.4u l=0.6u
X21 vssd1 a_23756_7080 a_27924_6340 vssd1 nfet_06v0 ad=0.2911p pd=1.53u as=0.3608p ps=2.52u w=0.82u l=0.6u
X22 vccd1 a_5724_10216 a_5636_10260 vccd1 pfet_06v0 ad=0.5368p pd=3.32u as=0.5368p ps=3.32u w=1.22u l=1u
X23 vccd1 a_21180_4416 a_25796_9176 vccd1 pfet_06v0 ad=0.2249p pd=1.385u as=0.3806p ps=2.61u w=0.865u l=0.5u
X24 vssd1 CLK a_21392_8392 vssd1 nfet_06v0 ad=0.1053p pd=0.925u as=0.1782p ps=1.69u w=0.405u l=0.6u
X25 vccd1 a_2140_11351 a_2052_11448 vccd1 pfet_06v0 ad=0.5368p pd=3.32u as=0.5368p ps=3.32u w=1.22u l=1u
X26 a_17696_4059 a_17284_4472 vssd1 vssd1 nfet_06v0 ad=0.1782p pd=1.69u as=0.1053p ps=0.925u w=0.405u l=0.6u
X27 a_31341_5557 a_31241_5512 a_30725_5557 vccd1 pfet_06v0 ad=0.37665p pd=1.835u as=0.37665p ps=1.835u w=1.215u l=0.5u
X28 a_16588_11351 a_16500_11448 vssd1 vssd1 nfet_06v0 ad=0.3608p pd=2.52u as=0.3608p ps=2.52u w=0.82u l=1u
X29 a_12992_3988 a_12892_3944 vccd1 vccd1 pfet_06v0 ad=0.5368p pd=3.32u as=0.5368p ps=3.32u w=1.22u l=0.5u
X30 a_8076_9783 a_7988_9880 vssd1 vssd1 nfet_06v0 ad=0.3608p pd=2.52u as=0.3608p ps=2.52u w=0.82u l=1u
X31 vssd1 a_1908_4118 a_18704_4476 vssd1 nfet_06v0 ad=0.2016p pd=1.48u as=43.199997f ps=0.6u w=0.36u l=0.6u
X32 a_23687_11620 a_23231_11044 vccd1 vccd1 pfet_06v0 ad=61.199993f pd=0.7u as=0.1116p ps=0.98u w=0.36u l=0.5u
X33 a_30792_9880 a_30240_9880 a_30588_9880 vccd1 pfet_06v0 ad=0.2028p pd=1.3u as=0.2028p ps=1.3u w=0.78u l=0.5u
X34 a_4964_3608 a_4516_3249 vssd1 vssd1 nfet_06v0 ad=0.2178p pd=1.87u as=0.153p ps=1.195u w=0.495u l=0.6u
X35 a_13529_5904 a_13112_6044 a_13905_6044 vssd1 nfet_06v0 ad=0.176p pd=1.68u as=0.134p ps=1.1u w=0.4u l=0.6u
X36 vccd1 a_34028_3160 a_32236_3160 vccd1 pfet_06v0 ad=0.5368p pd=3.32u as=0.3782p ps=1.84u w=1.22u l=0.5u
X37 a_11320_6428 a_9520_6744 a_10380_6695 vssd1 nfet_06v0 ad=0.2007p pd=1.475u as=0.2007p ps=1.475u w=0.36u l=0.6u
X38 a_14876_9477 a_18940_7080 a_19089_6744 vccd1 pfet_06v0 ad=0.3159p pd=1.735u as=0.3159p ps=1.735u w=1.215u l=0.5u
X39 a_3528_7612 a_2688_7195 a_3240_7212 vssd1 nfet_06v0 ad=43.199997f pd=0.6u as=93.59999f ps=0.88u w=0.36u l=0.6u
D0 vssd1 a_2468_3254 diode_nd2ps_06v0 pj=1.86u area=0.2052p
X40 vccd1 a_13900_4728 a_11560_5600 vccd1 pfet_06v0 ad=0.4972p pd=3.14u as=0.4248p ps=1.94u w=1.13u l=0.5u
X41 a_22560_4292 a_25312_5556 vccd1 vccd1 pfet_06v0 ad=0.3782p pd=1.84u as=0.3782p ps=1.84u w=1.22u l=0.5u
X42 a_28460_10216 a_28372_10260 vssd1 vssd1 nfet_06v0 ad=0.3608p pd=2.52u as=0.3608p ps=2.52u w=0.82u l=1u
X43 vccd1 a_21392_8392 a_15324_6608 vccd1 pfet_06v0 ad=0.3782p pd=1.84u as=0.3782p ps=1.84u w=1.22u l=0.5u
X44 a_22868_4772 a_21871_5250 vssd1 vssd1 nfet_06v0 ad=0.1312p pd=1.14u as=0.3608p ps=2.52u w=0.82u l=0.6u
X45 vssd1 a_35708_9001 SC vssd1 nfet_06v0 ad=0.2132p pd=1.34u as=0.2132p ps=1.34u w=0.82u l=0.6u
X46 a_19028_5308 a_16108_3228 a_18768_5308 vccd1 pfet_06v0 ad=0.1736p pd=1.18u as=0.224p ps=1.36u w=0.56u l=0.5u
X47 a_24555_7608 a_24435_7098 a_23980_7438 vssd1 nfet_06v0 ad=0.1312p pd=1.14u as=0.3608p ps=2.52u w=0.82u l=0.6u
X48 vccd1 a_17228_3197 a_21871_6818 vccd1 pfet_06v0 ad=0.2197p pd=1.365u as=0.2197p ps=1.365u w=0.845u l=0.5u
X49 a_3260_8780 a_3140_3272 vssd1 vssd1 nfet_06v0 ad=93.59999f pd=0.88u as=0.1584p ps=1.6u w=0.36u l=0.6u
X50 vccd1 a_22560_4292 a_35737_4428 vccd1 pfet_06v0 ad=0.4149p pd=2.65u as=0.1521p ps=1.105u w=0.585u l=0.5u
X51 a_14420_4076 a_13252_4472 a_14216_4076 vccd1 pfet_06v0 ad=0.2028p pd=1.3u as=0.2028p ps=1.3u w=0.78u l=0.5u
X52 a_32977_3989 a_27935_4728 a_29772_4773 vccd1 pfet_06v0 ad=0.5346p pd=3.31u as=0.3159p ps=1.735u w=1.215u l=0.5u
X53 a_7050_7124 a_6426_7124 a_6882_7124 vccd1 pfet_06v0 ad=0.3852p pd=2.86u as=61.199993f ps=0.7u w=0.36u l=0.5u
X54 SDAC[0] a_9408_3608 vssd1 vssd1 nfet_06v0 ad=0.2132p pd=1.34u as=0.2132p ps=1.34u w=0.82u l=0.6u
X55 a_4905_7472 a_1908_4118 vccd1 vccd1 pfet_06v0 ad=0.26p pd=1.52u as=0.29465p ps=1.74u w=1u l=0.5u
X56 a_13116_11784 a_13028_11828 vssd1 vssd1 nfet_06v0 ad=0.3608p pd=2.52u as=0.3608p ps=2.52u w=0.82u l=1u
X57 a_27029_10030 a_26909_9432 vccd1 vccd1 pfet_06v0 ad=61.199993f pd=0.7u as=0.379p ps=2.37u w=0.36u l=0.5u
X58 a_7924_8312 a_6756_7991 a_7720_8312 vccd1 pfet_06v0 ad=0.2028p pd=1.3u as=0.2028p ps=1.3u w=0.78u l=0.5u
X59 a_7315_3160 a_7645_3160 a_7765_3204 vssd1 nfet_06v0 ad=0.3705p pd=2.77u as=43.8f ps=0.605u w=0.365u l=0.6u
X60 a_17416_6016 a_17676_5512 vccd1 vccd1 pfet_06v0 ad=0.462p pd=2.98u as=0.4015p ps=1.92u w=1.05u l=0.5u
D1 vssd1 a_1908_4118 diode_nd2ps_06v0 pj=1.86u area=0.2052p
X61 vssd1 a_15324_6608 a_27776_7124 vssd1 nfet_06v0 ad=0.1053p pd=0.925u as=0.1053p ps=0.925u w=0.405u l=0.6u
X62 a_32481_11846 a_32381_11802 vccd1 vccd1 pfet_06v0 ad=0.2938p pd=1.65u as=0.4972p ps=3.14u w=1.13u l=0.5u
X63 a_35916_7168 a_35608_7212 vssd1 vssd1 nfet_06v0 ad=0.2007p pd=1.475u as=0.2016p ps=1.48u w=0.36u l=0.6u
X64 a_22289_6340 a_17004_3197 a_22085_6340 vssd1 nfet_06v0 ad=0.1517p pd=1.19u as=0.1722p ps=1.24u w=0.82u l=0.6u
X65 a_18836_7642 a_16365_5984 vssd1 vssd1 nfet_06v0 ad=0.1209p pd=0.985u as=0.2046p ps=1.81u w=0.465u l=0.6u
X66 a_11003_7699 a_10527_7124 a_10751_7146 vssd1 nfet_06v0 ad=43.8f pd=0.605u as=0.3705p ps=2.77u w=0.365u l=0.6u
X67 a_11123_4381 a_11453_4453 a_11573_4563 vssd1 nfet_06v0 ad=0.3705p pd=2.77u as=43.8f ps=0.605u w=0.365u l=0.6u
X68 a_4905_7472 a_4488_7612 a_5281_7612 vssd1 nfet_06v0 ad=0.176p pd=1.68u as=0.134p ps=1.1u w=0.4u l=0.6u
X69 vccd1 a_23868_11784 a_23780_11828 vccd1 pfet_06v0 ad=0.5368p pd=3.32u as=0.5368p ps=3.32u w=1.22u l=1u
X70 a_22636_11351 a_22548_11448 vssd1 vssd1 nfet_06v0 ad=0.3608p pd=2.52u as=0.3608p ps=2.52u w=0.82u l=1u
X71 a_23751_10030 a_23295_10052 a_23519_9476 vccd1 pfet_06v0 ad=61.199993f pd=0.7u as=0.3456p ps=2.64u w=0.36u l=0.5u
X72 a_11436_11351 a_11348_11448 vssd1 vssd1 nfet_06v0 ad=0.3608p pd=2.52u as=0.3608p ps=2.52u w=0.82u l=1u
X73 vssd1 a_27935_4728 a_33593_4472 vssd1 nfet_06v0 ad=0.3586p pd=2.51u as=0.1304p ps=1.135u w=0.815u l=0.6u
X74 vssd1 a_18403_5949 a_14975_4728 vssd1 nfet_06v0 ad=0.282625p pd=1.87u as=0.3608p ps=2.52u w=0.82u l=0.6u
X75 a_22000_9432 a_19361_6296 vccd1 vccd1 pfet_06v0 ad=0.2486p pd=2.01u as=0.35315p ps=1.96u w=0.565u l=0.5u
X76 a_5713_6744 a_5797_6296 a_5733_6340 vssd1 nfet_06v0 ad=0.3608p pd=2.52u as=0.1312p ps=1.14u w=0.82u l=0.6u
X77 a_19432_8692 a_18828_9199 a_19432_9176 vccd1 pfet_06v0 ad=0.5368p pd=3.32u as=0.3172p ps=1.74u w=1.22u l=0.5u
X78 vccd1 a_16364_6296 a_14567_4728 vccd1 pfet_06v0 ad=0.379p pd=2.37u as=0.5368p ps=3.32u w=1.22u l=0.5u
X79 a_37904_7864 a_26723_10216 vssd1 vssd1 nfet_06v0 ad=0.1584p pd=1.6u as=0.2344p ps=1.56u w=0.36u l=0.6u
X80 a_30913_5557 a_20609_5176 a_30725_5557 vccd1 pfet_06v0 ad=0.3159p pd=1.735u as=0.5346p ps=3.31u w=1.215u l=0.5u
X81 a_11304_8780 a_10340_9176 a_11100_8780 vssd1 nfet_06v0 ad=93.59999f pd=0.88u as=93.59999f ps=0.88u w=0.36u l=0.6u
D2 a_3364_4822 vccd1 diode_pd2nw_06v0 pj=1.86u area=0.2052p
X82 vccd1 a_12579_10653 a_11740_9500 vccd1 pfet_06v0 ad=0.379p pd=2.37u as=0.5368p ps=3.32u w=1.22u l=0.5u
X83 vssd1 a_21180_4416 a_34644_7608 vssd1 nfet_06v0 ad=0.1053p pd=0.925u as=0.1782p ps=1.69u w=0.405u l=0.6u
X84 a_3932_11784 a_3844_11828 vssd1 vssd1 nfet_06v0 ad=0.3608p pd=2.52u as=0.3608p ps=2.52u w=0.82u l=1u
X85 vccd1 a_12172_5600 a_12068_5644 vccd1 pfet_06v0 ad=0.45p pd=2.02u as=0.2028p ps=1.3u w=0.78u l=0.5u
X86 vccd1 a_30723_9085 a_28527_4728 vccd1 pfet_06v0 ad=0.379p pd=2.37u as=0.5368p ps=3.32u w=1.22u l=0.5u
X87 a_35708_9001 a_37500_9006 vccd1 vccd1 pfet_06v0 ad=0.3782p pd=1.84u as=0.3782p ps=1.84u w=1.22u l=0.5u
X88 vssd1 a_20096_10688 a_18940_7080 vssd1 nfet_06v0 ad=0.2344p pd=1.56u as=0.3608p ps=2.52u w=0.82u l=0.6u
X89 a_10276_6744 a_1908_4118 vccd1 vccd1 pfet_06v0 ad=0.3432p pd=2.44u as=0.45p ps=2.02u w=0.78u l=0.5u
X90 a_23932_6695 a_23624_6744 vssd1 vssd1 nfet_06v0 ad=0.2007p pd=1.475u as=0.2016p ps=1.48u w=0.36u l=0.6u
X91 a_13664_4059 a_13252_4472 vccd1 vccd1 pfet_06v0 ad=0.3806p pd=2.61u as=0.2249p ps=1.385u w=0.865u l=0.5u
X92 a_14470_7908 a_13994_8484 a_14198_8402 vssd1 nfet_06v0 ad=43.199997f pd=0.6u as=0.369p ps=2.77u w=0.36u l=0.6u
D3 vssd1 a_2916_4822 diode_nd2ps_06v0 pj=1.86u area=0.2052p
X93 vccd1 a_28428_3160 SDAC[6] vccd1 pfet_06v0 ad=0.3782p pd=1.84u as=0.3782p ps=1.84u w=1.22u l=0.5u
X94 a_19040_7124 a_18940_7080 a_18836_7124 vccd1 pfet_06v0 ad=0.3782p pd=1.84u as=0.3172p ps=1.74u w=1.22u l=0.5u
X95 vccd1 a_25312_5556 a_22560_4292 vccd1 pfet_06v0 ad=0.5368p pd=3.32u as=0.3782p ps=1.84u w=1.22u l=0.5u
X96 a_15324_6608 a_21392_8392 vccd1 vccd1 pfet_06v0 ad=0.3782p pd=1.84u as=0.3782p ps=1.84u w=1.22u l=0.5u
X97 a_3772_4032 a_3464_4076 vccd1 vccd1 pfet_06v0 ad=0.2424p pd=1.465u as=0.2222p ps=1.89u w=0.505u l=0.5u
X98 a_13564_11784 a_13476_11828 vssd1 vssd1 nfet_06v0 ad=0.3608p pd=2.52u as=0.3608p ps=2.52u w=0.82u l=1u
X99 vssd1 a_15553_5512 a_17640_7564 vssd1 nfet_06v0 ad=0.2112p pd=1.84u as=0.1248p ps=1u w=0.48u l=0.6u
X100 a_2356_4118 a_13496_6366 vccd1 vccd1 pfet_06v0 ad=0.4392p pd=1.94u as=0.3172p ps=1.74u w=1.22u l=0.5u
X101 vssd1 a_18536_10720 a_15383_8679 vssd1 nfet_06v0 ad=0.153p pd=1.195u as=0.2178p ps=1.87u w=0.495u l=0.6u
X102 vccd1 a_17820_10216 a_17732_10260 vccd1 pfet_06v0 ad=0.5368p pd=3.32u as=0.5368p ps=3.32u w=1.22u l=1u
X103 vssd1 a_28540_9500 a_26456_8736 vssd1 nfet_06v0 ad=0.2112p pd=1.84u as=0.2112p ps=1.84u w=0.48u l=0.6u
X104 vccd1 a_31561_4336 a_31456_4476 vccd1 pfet_06v0 ad=0.29465p pd=1.74u as=0.1313p ps=1.025u w=0.505u l=0.5u
D4 vssd1 XRST diode_nd2ps_06v0 pj=1.86u area=0.2052p
X105 a_18403_5949 a_18733_6021 a_18853_5578 vccd1 pfet_06v0 ad=0.3456p pd=2.64u as=61.199993f ps=0.7u w=0.36u l=0.5u
X106 vccd1 a_11123_4381 a_8479_5996 vccd1 pfet_06v0 ad=0.379p pd=2.37u as=0.5368p ps=3.32u w=1.22u l=0.5u
X107 vccd1 a_1772_7864 DIGITAL_OUT vccd1 pfet_06v0 ad=0.3782p pd=1.84u as=0.3782p ps=1.84u w=1.22u l=0.5u
X108 a_15464_4476 a_13664_4059 a_14524_4032 vssd1 nfet_06v0 ad=0.2007p pd=1.475u as=0.2007p ps=1.475u w=0.36u l=0.6u
X109 a_17864_8648 a_17456_8648 a_18244_8692 vccd1 pfet_06v0 ad=0.2464p pd=2u as=0.1456p ps=1.08u w=0.56u l=0.5u
X110 vccd1 a_26241_7564 a_23756_7080 vccd1 pfet_06v0 ad=0.38705p pd=2.08u as=0.5368p ps=3.32u w=1.22u l=0.5u
X111 vssd1 a_26241_7564 a_23756_7080 vssd1 nfet_06v0 ad=0.2288p pd=1.58u as=0.3608p ps=2.52u w=0.82u l=0.6u
X112 vccd1 a_32236_3160 SDAC[7] vccd1 pfet_06v0 ad=0.3782p pd=1.84u as=0.3782p ps=1.84u w=1.22u l=0.5u
X113 a_2140_6647 a_2052_6744 vssd1 vssd1 nfet_06v0 ad=0.3608p pd=2.52u as=0.3608p ps=2.52u w=0.82u l=1u
X114 a_13104_7195 a_12692_7608 vccd1 vccd1 pfet_06v0 ad=0.3806p pd=2.61u as=0.2249p ps=1.385u w=0.865u l=0.5u
X115 a_14216_4076 a_13252_4472 a_14012_4076 vssd1 nfet_06v0 ad=93.59999f pd=0.88u as=93.59999f ps=0.88u w=0.36u l=0.6u
X116 a_11884_11351 a_11796_11448 vssd1 vssd1 nfet_06v0 ad=0.3608p pd=2.52u as=0.3608p ps=2.52u w=0.82u l=1u
X117 vssd1 a_31561_4336 a_31456_4476 vssd1 nfet_06v0 ad=0.1224p pd=1.04u as=94.5f ps=0.885u w=0.36u l=0.6u
X118 vssd1 a_12580_3608 a_15568_5176 vssd1 nfet_06v0 ad=0.2132p pd=1.34u as=0.2132p ps=1.34u w=0.82u l=0.6u
X119 vssd1 a_36972_7864 a_36044_12281 vssd1 nfet_06v0 ad=0.2486p pd=2.01u as=0.1469p ps=1.085u w=0.565u l=0.6u
X120 a_32680_6799 a_32384_6384 a_31623_6564 vccd1 pfet_06v0 ad=0.2424p pd=1.465u as=0.25375p ps=1.51u w=0.505u l=0.5u
X121 a_9644_11351 a_9556_11448 vssd1 vssd1 nfet_06v0 ad=0.3608p pd=2.52u as=0.3608p ps=2.52u w=0.82u l=1u
X122 vccd1 a_35708_9001 SC vccd1 pfet_06v0 ad=0.3782p pd=1.84u as=0.3782p ps=1.84u w=1.22u l=0.5u
X123 a_13900_11351 a_13812_11448 vssd1 vssd1 nfet_06v0 ad=0.3608p pd=2.52u as=0.3608p ps=2.52u w=0.82u l=1u
X124 a_5276_10216 a_5188_10260 vssd1 vssd1 nfet_06v0 ad=0.3608p pd=2.52u as=0.3608p ps=2.52u w=0.82u l=1u
D5 a_1908_4118 vccd1 diode_pd2nw_06v0 pj=1.86u area=0.2052p
X125 vccd1 a_21852_10216 a_21764_10260 vccd1 pfet_06v0 ad=0.5368p pd=3.32u as=0.5368p ps=3.32u w=1.22u l=1u
X126 vssd1 CLK a_21392_8392 vssd1 nfet_06v0 ad=0.1053p pd=0.925u as=0.1053p ps=0.925u w=0.405u l=0.6u
X127 vccd1 a_18354_6296 a_18474_6916 vccd1 pfet_06v0 ad=0.1116p pd=0.98u as=61.199993f ps=0.7u w=0.36u l=0.5u
X128 vssd1 a_2356_4118 a_7652_4855 vssd1 nfet_06v0 ad=0.1053p pd=0.925u as=0.1782p ps=1.69u w=0.405u l=0.6u
X129 a_23932_6695 a_23624_6744 vccd1 vccd1 pfet_06v0 ad=0.2424p pd=1.465u as=0.2222p ps=1.89u w=0.505u l=0.5u
X130 a_19052_8648 a_19300_10744 vssd1 vssd1 nfet_06v0 ad=0.3608p pd=2.52u as=0.2344p ps=1.56u w=0.82u l=0.6u
X131 a_8968_7996 a_6756_7991 a_8028_8263 vccd1 pfet_06v0 ad=0.25375p pd=1.51u as=0.2424p ps=1.465u w=0.505u l=0.5u
X132 vccd1 a_8412_10216 a_8324_10260 vccd1 pfet_06v0 ad=0.5368p pd=3.32u as=0.5368p ps=3.32u w=1.22u l=1u
X133 a_37168_10748 a_34644_10744 a_36856_10748 vssd1 nfet_06v0 ad=94.5f pd=0.885u as=0.2007p ps=1.475u w=0.36u l=0.6u
X134 vccd1 a_21392_8392 a_15324_6608 vccd1 pfet_06v0 ad=0.3782p pd=1.84u as=0.3782p ps=1.84u w=1.22u l=0.5u
X135 a_13533_10792 a_10787_8312 vccd1 vccd1 pfet_06v0 ad=0.3852p pd=2.86u as=0.1116p ps=0.98u w=0.36u l=0.5u
X136 a_30723_9085 a_31053_9157 a_31173_9267 vssd1 nfet_06v0 ad=0.3705p pd=2.77u as=43.8f ps=0.605u w=0.365u l=0.6u
D6 vssd1 a_3364_4822 diode_nd2ps_06v0 pj=1.86u area=0.2052p
X137 a_37513_4416 a_36609_4476 vssd1 vssd1 nfet_06v0 ad=0.1782p pd=1.69u as=0.14985p ps=1.145u w=0.405u l=0.6u
X138 vssd1 a_16108_3228 a_6252_7864 vssd1 nfet_06v0 ad=0.2112p pd=1.84u as=0.1248p ps=1u w=0.48u l=0.6u
X139 a_21203_7517 a_21533_7589 a_21653_7699 vssd1 nfet_06v0 ad=0.3705p pd=2.77u as=43.8f ps=0.605u w=0.365u l=0.6u
D7 vssd1 a_2356_4118 diode_nd2ps_06v0 pj=1.86u area=0.2052p
X140 SDAC[0] a_9408_3608 vssd1 vssd1 nfet_06v0 ad=0.2132p pd=1.34u as=0.2132p ps=1.34u w=0.82u l=0.6u
X141 a_28463_4773 a_2916_4822 a_27452_4796 vssd1 nfet_06v0 ad=0.1304p pd=1.135u as=0.2119p ps=1.335u w=0.815u l=0.6u
X142 vccd1 a_2916_4822 a_10599_8312 vccd1 pfet_06v0 ad=0.3159p pd=1.735u as=0.3159p ps=1.735u w=1.215u l=0.5u
X143 vssd1 a_9385_7952 a_9280_7996 vssd1 nfet_06v0 ad=0.1224p pd=1.04u as=94.5f ps=0.885u w=0.36u l=0.6u
X144 a_4480_6044 a_4332_5600 a_4312_6044 vssd1 nfet_06v0 ad=43.199997f pd=0.6u as=43.199997f ps=0.6u w=0.36u l=0.6u
X145 a_32501_12312 a_32381_11802 vssd1 vssd1 nfet_06v0 ad=0.1312p pd=1.14u as=0.3608p ps=2.52u w=0.82u l=0.6u
X146 vccd1 a_1692_9783 a_1604_9880 vccd1 pfet_06v0 ad=0.5368p pd=3.32u as=0.5368p ps=3.32u w=1.22u l=1u
X147 a_36680_3205 a_30981_5996 vssd1 vssd1 nfet_06v0 ad=0.1584p pd=1.6u as=0.153p ps=1.195u w=0.36u l=0.6u
X148 SDAC[2] a_15568_5176 vccd1 vccd1 pfet_06v0 ad=0.3782p pd=1.84u as=0.3782p ps=1.84u w=1.22u l=0.5u
X149 vccd1 a_1692_6647 a_1604_6744 vccd1 pfet_06v0 ad=0.5368p pd=3.32u as=0.5368p ps=3.32u w=1.22u l=1u
X150 vssd1 a_22000_9432 a_21404_3160 vssd1 nfet_06v0 ad=0.2344p pd=1.56u as=0.3608p ps=2.52u w=0.82u l=0.6u
X151 vccd1 a_1692_3511 a_1604_3608 vccd1 pfet_06v0 ad=0.5368p pd=3.32u as=0.5368p ps=3.32u w=1.22u l=1u
X152 a_27753_4336 a_22560_4292 vccd1 vccd1 pfet_06v0 ad=0.26p pd=1.52u as=0.29465p ps=1.74u w=1u l=0.5u
X153 a_27671_10282 a_27215_10260 a_27439_10282 vccd1 pfet_06v0 ad=61.199993f pd=0.7u as=0.3456p ps=2.64u w=0.36u l=0.5u
X154 vccd1 a_6252_7864 a_15483_8723 vccd1 pfet_06v0 ad=0.2561p pd=1.505u as=0.2561p ps=1.505u w=0.985u l=0.5u
X155 SDAC[5] a_24976_3608 vccd1 vccd1 pfet_06v0 ad=0.3782p pd=1.84u as=0.3782p ps=1.84u w=1.22u l=0.5u
X156 a_32236_3160 a_34028_3160 vccd1 vccd1 pfet_06v0 ad=0.3782p pd=1.84u as=0.3782p ps=1.84u w=1.22u l=0.5u
X157 a_29739_6744 a_29075_6875 vssd1 vssd1 nfet_06v0 ad=0.3608p pd=2.52u as=0.2288p ps=1.58u w=0.82u l=0.6u
X158 a_37513_4416 a_36609_4476 vccd1 vccd1 pfet_06v0 ad=0.3432p pd=2.44u as=0.3276p ps=1.62u w=0.78u l=0.5u
X159 a_21180_4416 a_27776_7124 vccd1 vccd1 pfet_06v0 ad=0.4392p pd=1.94u as=0.3172p ps=1.74u w=1.22u l=0.5u
X160 SDAC[2] a_15568_5176 vssd1 vssd1 nfet_06v0 ad=0.2132p pd=1.34u as=0.2132p ps=1.34u w=0.82u l=0.6u
X161 a_30163_7864 a_30493_7864 a_30613_7908 vssd1 nfet_06v0 ad=0.3705p pd=2.77u as=43.8f ps=0.605u w=0.365u l=0.6u
X162 a_18793_9520 a_1908_4118 vccd1 vccd1 pfet_06v0 ad=0.26p pd=1.52u as=0.29465p ps=1.74u w=1u l=0.5u
X163 a_21871_6818 a_17640_7564 a_22289_6340 vssd1 nfet_06v0 ad=0.3608p pd=2.52u as=0.1517p ps=1.19u w=0.82u l=0.6u
X164 vccd1 a_15356_11784 a_15268_11828 vccd1 pfet_06v0 ad=0.5368p pd=3.32u as=0.5368p ps=3.32u w=1.22u l=1u
D8 vssd1 CLK diode_nd2ps_06v0 pj=1.86u area=0.2052p
X165 vccd1 a_21180_4416 a_34420_4472 vccd1 pfet_06v0 ad=0.2249p pd=1.385u as=0.3806p ps=2.61u w=0.865u l=0.5u
X166 a_9408_3608 a_7884_8692 vssd1 vssd1 nfet_06v0 ad=0.2132p pd=1.34u as=0.3608p ps=2.52u w=0.82u l=0.6u
X167 a_7203_6296 a_7533_6296 a_7653_6340 vssd1 nfet_06v0 ad=0.3705p pd=2.77u as=43.8f ps=0.605u w=0.365u l=0.6u
D9 vssd1 a_2468_3254 diode_nd2ps_06v0 pj=1.86u area=0.2052p
X168 SC a_35708_9001 vccd1 vccd1 pfet_06v0 ad=0.3782p pd=1.84u as=0.3782p ps=1.84u w=1.22u l=0.5u
X169 vccd1 a_22560_4292 a_35737_5996 vccd1 pfet_06v0 ad=0.4149p pd=2.65u as=0.1521p ps=1.105u w=0.585u l=0.5u
X170 vccd1 a_8860_10216 a_8772_10260 vccd1 pfet_06v0 ad=0.5368p pd=3.32u as=0.5368p ps=3.32u w=1.22u l=1u
D10 vssd1 a_2468_3254 diode_nd2ps_06v0 pj=1.86u area=0.2052p
X171 a_21392_8392 CLK vssd1 vssd1 nfet_06v0 ad=0.1782p pd=1.69u as=0.1053p ps=0.925u w=0.405u l=0.6u
X172 a_26356_10260 a_25908_10791 vssd1 vssd1 nfet_06v0 ad=0.2178p pd=1.87u as=0.153p ps=1.195u w=0.495u l=0.6u
X173 vccd1 a_2468_3254 a_6372_8312 vccd1 pfet_06v0 ad=0.5978p pd=3.42u as=0.3172p ps=1.74u w=1.22u l=0.5u
X174 a_28084_5644 a_22560_4292 vccd1 vccd1 pfet_06v0 ad=0.3432p pd=2.44u as=0.45p ps=2.02u w=0.78u l=0.5u
X175 a_25368_10720 a_20868_5556 vccd1 vccd1 pfet_06v0 ad=0.462p pd=2.98u as=0.4015p ps=1.92u w=1.05u l=0.5u
X176 a_35210_9476 a_35090_9432 vssd1 vssd1 nfet_06v0 ad=43.199997f pd=0.6u as=93.59999f ps=0.88u w=0.36u l=0.6u
X177 vssd1 a_18828_9199 a_19656_9176 vssd1 nfet_06v0 ad=0.3608p pd=2.52u as=0.1312p ps=1.14u w=0.82u l=0.6u
X178 a_23828_6744 a_22660_6423 a_23624_6744 vccd1 pfet_06v0 ad=0.2028p pd=1.3u as=0.2028p ps=1.3u w=0.78u l=0.5u
X179 a_36609_4476 a_34420_4472 a_35737_4428 vccd1 pfet_06v0 ad=0.1079p pd=0.935u as=0.27805p ps=2.17u w=0.415u l=0.5u
X180 a_18388_4728 a_17640_7564 vssd1 vssd1 nfet_06v0 ad=0.176p pd=1.68u as=0.104p ps=0.92u w=0.4u l=0.6u
X181 a_24097_4476 a_22560_4292 vssd1 vssd1 nfet_06v0 ad=0.134p pd=1.1u as=0.1224p ps=1.04u w=0.36u l=0.6u
X182 vccd1 a_2356_4118 a_16164_9559 vccd1 pfet_06v0 ad=0.2249p pd=1.385u as=0.3806p ps=2.61u w=0.865u l=0.5u
X183 a_4024_5644 a_3472_5627 a_3820_5644 vccd1 pfet_06v0 ad=0.2028p pd=1.3u as=0.2028p ps=1.3u w=0.78u l=0.5u
X184 a_10871_7864 a_10751_7146 vssd1 vssd1 nfet_06v0 ad=0.3608p pd=2.52u as=0.282625p ps=1.87u w=0.82u l=0.6u
X185 a_35708_9001 a_37500_9006 vssd1 vssd1 nfet_06v0 ad=0.2132p pd=1.34u as=0.2132p ps=1.34u w=0.82u l=0.6u
X186 vssd1 a_30723_9085 a_28527_4728 vssd1 nfet_06v0 ad=0.282625p pd=1.87u as=0.3608p ps=2.52u w=0.82u l=0.6u
X187 a_14533_5557 a_13529_5904 vccd1 vccd1 pfet_06v0 ad=0.5346p pd=3.31u as=0.5346p ps=3.31u w=1.215u l=0.5u
X188 a_4760_6341 a_5020_6341 vssd1 vssd1 nfet_06v0 ad=0.1584p pd=1.6u as=0.153p ps=1.195u w=0.36u l=0.6u
X189 a_20289_4476 a_1908_4118 vssd1 vssd1 nfet_06v0 ad=0.134p pd=1.1u as=0.1224p ps=1.04u w=0.36u l=0.6u
X190 vssd1 a_1908_4118 a_17584_9564 vssd1 nfet_06v0 ad=0.2016p pd=1.48u as=43.199997f ps=0.6u w=0.36u l=0.6u
X191 COMP_CLK a_33916_11000 vccd1 vccd1 pfet_06v0 ad=0.3782p pd=1.84u as=0.5368p ps=3.32u w=1.22u l=0.5u
X192 vssd1 a_19656_7909 a_17004_3197 vssd1 nfet_06v0 ad=0.153p pd=1.195u as=0.2178p ps=1.87u w=0.495u l=0.6u
X193 vssd1 a_35708_11000 a_33916_11000 vssd1 nfet_06v0 ad=0.2132p pd=1.34u as=0.2132p ps=1.34u w=0.82u l=0.6u
X194 vccd1 a_1692_10216 a_1604_10260 vccd1 pfet_06v0 ad=0.5368p pd=3.32u as=0.5368p ps=3.32u w=1.22u l=1u
X195 a_3619_4728 a_3949_4728 a_4069_5326 vccd1 pfet_06v0 ad=0.3456p pd=2.64u as=61.199993f ps=0.7u w=0.36u l=0.5u
X196 vccd1 a_33461_9477 a_37780_9568 vccd1 pfet_06v0 ad=0.35315p pd=1.96u as=0.2486p ps=2.01u w=0.565u l=0.5u
X197 a_23304_4476 a_21092_4472 a_22364_4032 vccd1 pfet_06v0 ad=0.25375p pd=1.51u as=0.2424p ps=1.465u w=0.505u l=0.5u
X198 a_16252_11784 a_16164_11828 vssd1 vssd1 nfet_06v0 ad=0.3608p pd=2.52u as=0.3608p ps=2.52u w=0.82u l=1u
X199 a_27358_11850 a_26902_12404 a_27126_11850 vccd1 pfet_06v0 ad=61.199993f pd=0.7u as=0.3456p ps=2.64u w=0.36u l=0.5u
X200 vccd1 a_37912_4773 a_37196_11045 vccd1 pfet_06v0 ad=0.4015p pd=1.92u as=0.5368p ps=3.32u w=1.22u l=0.5u
X201 a_7884_8692 a_7428_9176 vccd1 vccd1 pfet_06v0 ad=0.5368p pd=3.32u as=0.35315p ps=1.96u w=1.22u l=0.5u
X202 a_18704_4476 a_18556_4032 a_18536_4476 vssd1 nfet_06v0 ad=43.199997f pd=0.6u as=43.199997f ps=0.6u w=0.36u l=0.6u
X203 a_20096_10688 a_19916_7909 vssd1 vssd1 nfet_06v0 ad=0.1584p pd=1.6u as=0.2344p ps=1.56u w=0.36u l=0.6u
X204 vssd1 a_17456_8648 a_17864_8648 vssd1 nfet_06v0 ad=0.1584p pd=1.6u as=93.59999f ps=0.88u w=0.36u l=0.6u
X205 vccd1 a_25100_11351 a_25012_11448 vccd1 pfet_06v0 ad=0.5368p pd=3.32u as=0.5368p ps=3.32u w=1.22u l=1u
X206 vccd1 a_10204_11784 a_10116_11828 vccd1 pfet_06v0 ad=0.5368p pd=3.32u as=0.5368p ps=3.32u w=1.22u l=1u
X207 vssd1 a_26579_9432 a_24435_7098 vssd1 nfet_06v0 ad=0.282625p pd=1.87u as=0.3608p ps=2.52u w=0.82u l=0.6u
X208 vccd1 a_1692_8648 a_1604_8692 vccd1 pfet_06v0 ad=0.5368p pd=3.32u as=0.5368p ps=3.32u w=1.22u l=1u
X209 a_36833_4476 a_34420_4472 a_36609_4476 vssd1 nfet_06v0 ad=0.2898p pd=2.33u as=93.59999f ps=0.88u w=0.36u l=0.6u
X210 vccd1 a_1692_5512 a_1604_5556 vccd1 pfet_06v0 ad=0.5368p pd=3.32u as=0.5368p ps=3.32u w=1.22u l=1u
X211 a_4800_7612 a_2276_7608 a_4488_7612 vssd1 nfet_06v0 ad=94.5f pd=0.885u as=0.2007p ps=1.475u w=0.36u l=0.6u
X212 a_14533_5557 a_13529_5904 vssd1 vssd1 nfet_06v0 ad=0.3586p pd=2.51u as=0.3586p ps=2.51u w=0.815u l=0.6u
X213 a_32995_11784 a_37273_10608 vccd1 vccd1 pfet_06v0 ad=0.5346p pd=3.31u as=0.5346p ps=3.31u w=1.215u l=0.5u
X214 vccd1 a_15030_7908 a_15486_8462 vccd1 pfet_06v0 ad=0.379p pd=2.37u as=61.199993f ps=0.7u w=0.36u l=0.5u
X215 a_23721_4336 a_22560_4292 vccd1 vccd1 pfet_06v0 ad=0.26p pd=1.52u as=0.29465p ps=1.74u w=1u l=0.5u
X216 a_20411_6760 a_17004_3197 a_20615_6340 vssd1 nfet_06v0 ad=0.3608p pd=2.52u as=0.1722p ps=1.24u w=0.82u l=0.6u
X217 a_5505_9180 a_1908_4118 vssd1 vssd1 nfet_06v0 ad=0.134p pd=1.1u as=0.1224p ps=1.04u w=0.36u l=0.6u
X218 vccd1 a_5612_9783 a_5524_9880 vccd1 pfet_06v0 ad=0.5368p pd=3.32u as=0.5368p ps=3.32u w=1.22u l=1u
X219 vssd1 a_15568_5176 SDAC[2] vssd1 nfet_06v0 ad=0.2132p pd=1.34u as=0.2132p ps=1.34u w=0.82u l=0.6u
X220 a_11285_4773 a_10281_4816 vssd1 vssd1 nfet_06v0 ad=0.3586p pd=2.51u as=0.3586p ps=2.51u w=0.815u l=0.6u
X221 a_18828_9199 a_20403_7098 vccd1 vccd1 pfet_06v0 ad=0.2938p pd=1.65u as=0.4972p ps=3.14u w=1.13u l=0.5u
X222 a_31117_7864 a_31509_7864 vccd1 vccd1 pfet_06v0 ad=0.3852p pd=2.86u as=0.1116p ps=0.98u w=0.36u l=0.5u
X223 a_25866_11828 a_25242_11828 a_25718_12404 vssd1 nfet_06v0 ad=0.369p pd=2.77u as=43.199997f ps=0.6u w=0.36u l=0.6u
X224 a_34412_9176 a_34292_8648 a_34144_9238 vssd1 nfet_06v0 ad=0.1312p pd=1.14u as=0.2569p ps=1.56u w=0.82u l=0.6u
X225 a_31117_4728 a_23599_5996 vccd1 vccd1 pfet_06v0 ad=0.3852p pd=2.86u as=0.1116p ps=0.98u w=0.36u l=0.5u
X226 a_6882_7124 a_6426_7124 vccd1 vccd1 pfet_06v0 ad=61.199993f pd=0.7u as=0.1116p ps=0.98u w=0.36u l=0.5u
X227 a_15568_5176 a_12580_3608 vccd1 vccd1 pfet_06v0 ad=0.3782p pd=1.84u as=0.5368p ps=3.32u w=1.22u l=0.5u
X228 vccd1 a_17820_11784 a_17732_11828 vccd1 pfet_06v0 ad=0.5368p pd=3.32u as=0.5368p ps=3.32u w=1.22u l=1u
X229 a_7765_3204 a_7645_3160 vssd1 vssd1 nfet_06v0 ad=43.8f pd=0.605u as=0.282625p ps=1.87u w=0.365u l=0.6u
X230 a_4228_5644 a_1908_4118 vccd1 vccd1 pfet_06v0 ad=0.3432p pd=2.44u as=0.45p ps=2.02u w=0.78u l=0.5u
X231 a_23420_6744 a_23320_6574 vccd1 vccd1 pfet_06v0 ad=0.2028p pd=1.3u as=0.3432p ps=2.44u w=0.78u l=0.5u
X232 vccd1 a_24540_10216 a_24452_10260 vccd1 pfet_06v0 ad=0.5368p pd=3.32u as=0.5368p ps=3.32u w=1.22u l=1u
X233 a_4712_4476 a_2500_4472 a_3772_4032 vccd1 pfet_06v0 ad=0.25375p pd=1.51u as=0.2424p ps=1.465u w=0.505u l=0.5u
X234 vssd1 a_1908_4118 a_12320_6044 vssd1 nfet_06v0 ad=0.2016p pd=1.48u as=43.199997f ps=0.6u w=0.36u l=0.6u
X235 vssd1 a_35708_9001 SC vssd1 nfet_06v0 ad=0.2132p pd=1.34u as=0.2132p ps=1.34u w=0.82u l=0.6u
X236 a_11573_4563 a_11453_4453 vssd1 vssd1 nfet_06v0 ad=43.8f pd=0.605u as=0.282625p ps=1.87u w=0.365u l=0.6u
X237 vssd1 a_33094_5892 a_2468_3254 vssd1 nfet_06v0 ad=0.2911p pd=1.53u as=0.2132p ps=1.34u w=0.82u l=0.6u
X238 vccd1 a_34888_9152 a_32404_7864 vccd1 pfet_06v0 ad=0.4015p pd=1.92u as=0.5368p ps=3.32u w=1.22u l=0.5u
X239 a_23616_4476 a_21504_4059 a_23304_4476 vccd1 pfet_06v0 ad=0.1313p pd=1.025u as=0.25375p ps=1.51u w=0.505u l=0.5u
X240 a_24675_4728 a_25005_4728 a_25125_5326 vccd1 pfet_06v0 ad=0.3456p pd=2.64u as=61.199993f ps=0.7u w=0.36u l=0.5u
X241 vssd1 a_32457_9520 a_32352_9564 vssd1 nfet_06v0 ad=0.1224p pd=1.04u as=94.5f ps=0.885u w=0.36u l=0.6u
X242 a_11100_11784 a_11012_11828 vssd1 vssd1 nfet_06v0 ad=0.3608p pd=2.52u as=0.3608p ps=2.52u w=0.82u l=1u
X243 a_18648_4748 a_16365_5984 vssd1 vssd1 nfet_06v0 ad=0.1469p pd=1.085u as=0.2486p ps=2.01u w=0.565u l=0.6u
X244 a_16512_9120 a_16325_7125 vccd1 vccd1 pfet_06v0 ad=0.2486p pd=2.01u as=0.35315p ps=1.96u w=0.565u l=0.5u
X245 a_3696_3608 a_3596_3228 vccd1 vccd1 pfet_06v0 ad=0.5368p pd=3.32u as=0.5368p ps=3.32u w=1.22u l=0.5u
X246 vccd1 a_9408_3608 SDAC[0] vccd1 pfet_06v0 ad=0.3782p pd=1.84u as=0.3782p ps=1.84u w=1.22u l=0.5u
X247 SDAC[0] a_9408_3608 vssd1 vssd1 nfet_06v0 ad=0.2132p pd=1.34u as=0.2132p ps=1.34u w=0.82u l=0.6u
X248 a_16824_9710 a_17456_8648 a_17368_8692 vccd1 pfet_06v0 ad=0.3172p pd=1.74u as=0.5368p ps=3.32u w=1.22u l=0.5u
X249 vssd1 a_2468_3254 a_24555_7608 vssd1 nfet_06v0 ad=0.3608p pd=2.52u as=0.1312p ps=1.14u w=0.82u l=0.6u
X250 a_11760_9180 a_11612_8736 a_11592_9180 vssd1 nfet_06v0 ad=43.199997f pd=0.6u as=43.199997f ps=0.6u w=0.36u l=0.6u
X251 a_11312_5627 a_10900_6040 vssd1 vssd1 nfet_06v0 ad=0.1782p pd=1.69u as=0.1053p ps=0.925u w=0.405u l=0.6u
X252 a_7168_8312 a_6756_7991 vssd1 vssd1 nfet_06v0 ad=0.1782p pd=1.69u as=0.1053p ps=0.925u w=0.405u l=0.6u
X253 vccd1 a_32872_6686 a_32680_6799 vccd1 pfet_06v0 ad=0.2222p pd=1.89u as=0.2424p ps=1.465u w=0.505u l=0.5u
X254 vssd1 a_27924_6340 a_2468_4822 vssd1 nfet_06v0 ad=0.3608p pd=2.52u as=0.2132p ps=1.34u w=0.82u l=0.6u
X255 a_27935_4728 a_28040_7944 a_30778_7124 vccd1 pfet_06v0 ad=0.3477p pd=1.79u as=0.4087p ps=1.89u w=1.22u l=0.5u
X256 vccd1 a_6396_11784 a_6308_11828 vccd1 pfet_06v0 ad=0.5368p pd=3.32u as=0.5368p ps=3.32u w=1.22u l=1u
X257 vccd1 a_2356_4118 a_2500_9176 vccd1 pfet_06v0 ad=0.2249p pd=1.385u as=0.3806p ps=2.61u w=0.865u l=0.5u
X258 a_33916_11000 a_35708_11000 vssd1 vssd1 nfet_06v0 ad=0.2132p pd=1.34u as=0.2132p ps=1.34u w=0.82u l=0.6u
X259 vssd1 a_32236_3160 SDAC[7] vssd1 nfet_06v0 ad=0.2132p pd=1.34u as=0.2132p ps=1.34u w=0.82u l=0.6u
X260 vccd1 a_10652_11784 a_10564_11828 vccd1 pfet_06v0 ad=0.5368p pd=3.32u as=0.5368p ps=3.32u w=1.22u l=1u
X261 a_30240_9880 a_29828_9559 vssd1 vssd1 nfet_06v0 ad=0.1782p pd=1.69u as=0.1053p ps=0.925u w=0.405u l=0.6u
X262 a_35220_5644 a_35100_5996 vssd1 vssd1 nfet_06v0 ad=93.59999f pd=0.88u as=0.1584p ps=1.6u w=0.36u l=0.6u
X263 vssd1 a_11737_6384 a_11632_6428 vssd1 nfet_06v0 ad=0.1224p pd=1.04u as=94.5f ps=0.885u w=0.36u l=0.6u
X264 a_33461_9477 a_32457_9520 vssd1 vssd1 nfet_06v0 ad=0.3586p pd=2.51u as=0.3586p ps=2.51u w=0.815u l=0.6u
X265 a_35677_4076 a_34420_4472 a_35424_4076 vccd1 pfet_06v0 ad=0.101p pd=0.905u as=0.19315p ps=1.27u w=0.505u l=0.5u
X266 a_10983_7146 a_10527_7124 a_10751_7146 vccd1 pfet_06v0 ad=61.199993f pd=0.7u as=0.3456p ps=2.64u w=0.36u l=0.5u