* NGSPICE file created from SAR_TOP.ext - technology: gf180mcuD

.subckt SAR_TOP VIN VSS VDD XRST CLK OUT[1] OUT[0] OUT[3] OUT[2] OUT[5] OUT[4] EOC
X0 VDD.t1084 a_41180_n2804 a_41092_n2760 VDD.t1083 pfet_06v0 ad=0.5368p pd=3.32u as=0.5368p ps=3.32u w=1.22u l=1u
X1 a_23932_n20052 a_23844_n20008 VSS.t1639 VSS.t1638 nfet_06v0 ad=0.3608p pd=2.52u as=0.3608p ps=2.52u w=0.82u l=1u
X2 a_32533_n14520 a_32413_n14564 a_31789_n14564 VSS.t2513 nfet_06v0 ad=43.199997f pd=0.6u as=0.369p ps=2.77u w=0.36u l=0.6u
X3 a_46556_n2804 a_46468_n2760 VSS.t994 VSS.t993 nfet_06v0 ad=0.3608p pd=2.52u as=0.3608p ps=2.52u w=0.82u l=1u
X4 VDD.t1219 a_47452_n16916 a_47364_n16872 VDD.t1218 pfet_06v0 ad=0.5368p pd=3.32u as=0.5368p ps=3.32u w=1.22u l=1u
X5 a_11087_n7460.t29 a_11023_n6840.t20 VDD.t55 VDD.t54 pfet_03v3 ad=0.728p pd=3.32u as=0.728p ps=3.32u w=2.8u l=0.28u
X6 a_46108_n12212 a_46020_n12168 VSS.t4221 VSS.t4220 nfet_06v0 ad=0.3608p pd=2.52u as=0.3608p ps=2.52u w=0.82u l=1u
X7 VSS.t2583 a_24233_n13388 a_24128_n13248 VSS.t2582 nfet_06v0 ad=0.1224p pd=1.04u as=94.5f ps=0.885u w=0.36u l=0.6u
X8 VSS.t2571 a_28764_n8247 a_30228_n8203 VSS.t2570 nfet_06v0 ad=0.153p pd=1.195u as=0.1584p ps=1.6u w=0.36u l=0.6u
X9 VDD.t3442 a_47452_n13780 a_47364_n13736 VDD.t3441 pfet_06v0 ad=0.5368p pd=3.32u as=0.5368p ps=3.32u w=1.22u l=1u
X10 VDD.t1320 a_30396_n7508 a_30240_n7464 VDD.t1319 pfet_06v0 ad=0.4392p pd=1.94u as=0.4758p ps=2u w=1.22u l=0.5u
X11 VSS.t423 a_21772_n8292.t8 a_13623_n17552.t7 VSS.t422 nfet_06v0 ad=0.2132p pd=1.34u as=0.2132p ps=1.34u w=0.82u l=0.6u
X12 a_46780_n20485 a_46692_n20388 VSS.t2712 VSS.t2711 nfet_06v0 ad=0.3608p pd=2.52u as=0.3608p ps=2.52u w=0.82u l=1u
X13 VSS.t444 a_11023_n14874.t20 a_11087_n15494.t16 VSS.t72 nfet_03v3 ad=0.728p pd=3.32u as=0.728p ps=3.32u w=2.8u l=0.28u
X14 VDD.t4298 a_40060_n7508 a_39972_n7464 VDD.t4297 pfet_06v0 ad=0.5368p pd=3.32u as=0.5368p ps=3.32u w=1.22u l=1u
X15 VDD.t454 a_28721_n9076.t2 a_30324_n10600 VDD.t453 pfet_06v0 ad=0.4005p pd=2.12u as=0.1456p ps=1.08u w=0.56u l=0.5u
X16 VDD.t1573 a_33564_n20052 a_33476_n20008 VDD.t1323 pfet_06v0 ad=0.5368p pd=3.32u as=0.5368p ps=3.32u w=1.22u l=1u
X17 VDD.t1052 a_45212_n16916 a_45124_n16872 VDD.t1051 pfet_06v0 ad=0.5368p pd=3.32u as=0.5368p ps=3.32u w=1.22u l=1u
X18 a_38716_n9076 a_38628_n9032 VSS.t1961 VSS.t1960 nfet_06v0 ad=0.3608p pd=2.52u as=0.3608p ps=2.52u w=0.82u l=1u
X19 VDD.t2634 a_45212_n13780 a_45124_n13736 VDD.t2633 pfet_06v0 ad=0.5368p pd=3.32u as=0.5368p ps=3.32u w=1.22u l=1u
X20 VDD.t1009 a_40060_n4372 a_39972_n4328 VDD.t1008 pfet_06v0 ad=0.5368p pd=3.32u as=0.5368p ps=3.32u w=1.22u l=1u
X21 a_21692_n5468.t7 a_26440_n5940.t4 VSS.t230 VSS.t229 nfet_06v0 ad=0.1118p pd=0.95u as=0.1118p ps=0.95u w=0.43u l=0.6u
X22 VDD.t1023 a_43084_n18917 a_42996_n18820 VDD.t1022 pfet_06v0 ad=0.5368p pd=3.32u as=0.5368p ps=3.32u w=1.22u l=1u
X23 a_11087_n18172.t9 a_11023_n17552.t20 VSS.t412 VSS.t74 nfet_03v3 ad=0.728p pd=3.32u as=0.728p ps=3.32u w=2.8u l=0.28u
X24 a_38403_n5503 a_38733_n5431 a_38853_n5874 VDD.t1657 pfet_06v0 ad=0.3456p pd=2.64u as=61.199993f ps=0.7u w=0.36u l=0.5u
X25 VSS.t1141 a_32560_n7020 a_32455_n7420 VSS.t1140 nfet_06v0 ad=0.1053p pd=0.925u as=0.1782p ps=1.69u w=0.405u l=0.6u
D0 VSS.t173 a_26388_n17606.t2 diode_nd2ps_06v0 pj=1.86u area=0.2052p
X26 VDD.t1167 a_31324_n20052 a_31236_n20008 VDD.t1166 pfet_06v0 ad=0.5368p pd=3.32u as=0.5368p ps=3.32u w=1.22u l=1u
X27 a_44540_n20485 a_44452_n20388 VSS.t3584 VSS.t3583 nfet_06v0 ad=0.3608p pd=2.52u as=0.3608p ps=2.52u w=0.82u l=1u
X28 a_43420_n20485 a_43332_n20388 VSS.t1583 VSS.t1582 nfet_06v0 ad=0.3608p pd=2.52u as=0.3608p ps=2.52u w=0.82u l=1u
X29 a_32668_n16916 a_32580_n16872 VSS.t1132 VSS.t1131 nfet_06v0 ad=0.3608p pd=2.52u as=0.3608p ps=2.52u w=0.82u l=1u
X30 VSS.t382 a_10778_2852.t15 a_10712_4516.t19 VSS.t355 nfet_03v3 ad=0.728p pd=3.32u as=0.728p ps=3.32u w=2.8u l=0.28u
X31 VSS.t226 a_44640_1944.t8 OUT[5].t7 VSS.t225 nfet_06v0 ad=0.3608p pd=2.52u as=0.2132p ps=1.34u w=0.82u l=0.6u
X32 a_38403_n2367 a_38733_n2295 a_38853_n2738 VDD.t1986 pfet_06v0 ad=0.3456p pd=2.64u as=61.199993f ps=0.7u w=0.36u l=0.5u
X33 VDD.t250 a_13623_n9518.t8 a_11087_n10138.t29 VSS.t231 nfet_03v3 ad=0.728p pd=3.32u as=0.728p ps=3.32u w=2.8u l=0.28u
X34 a_47452_n20052 a_47364_n20008 VSS.t4058 VSS.t4057 nfet_06v0 ad=0.3608p pd=2.52u as=0.3608p ps=2.52u w=0.82u l=1u
X35 VDD.t1675 a_38716_n18484 a_38628_n18440 VDD.t1674 pfet_06v0 ad=0.5368p pd=3.32u as=0.5368p ps=3.32u w=1.22u l=1u
X36 a_47004_n5940 a_46916_n5896 VSS.t1391 VSS.t1390 nfet_06v0 ad=0.3608p pd=2.52u as=0.3608p ps=2.52u w=0.82u l=1u
X37 a_11023_n22908.t9 a_13623_n22908.t8 VSS.t185 VSS.t184 nfet_03v3 ad=0.728p pd=3.32u as=0.728p ps=3.32u w=2.8u l=0.28u
X38 a_30428_n16916 a_30340_n16872 VSS.t2180 VSS.t2179 nfet_06v0 ad=0.3608p pd=2.52u as=0.3608p ps=2.52u w=0.82u l=1u
X39 VDD.t2756 a_37844_1564 a_38256_1564.t7 VDD.t2755 pfet_06v0 ad=0.3782p pd=1.84u as=0.3782p ps=1.84u w=1.22u l=0.5u
X40 a_38295_332 a_39056_820 a_38847_464 VSS.t3731 nfet_06v0 ad=0.2007p pd=1.475u as=94.5f ps=0.885u w=0.36u l=0.6u
X41 a_39648_n2020 a_26553_377.t2 VDD.t109 VDD.t108 pfet_06v0 ad=0.2486p pd=2.01u as=0.35315p ps=1.96u w=0.565u l=0.5u
X42 a_31628_n5940.t31 a_33496_n6659.t8 VDD.t129 VDD.t128 pfet_06v0 ad=0.3782p pd=1.84u as=0.3782p ps=1.84u w=1.22u l=0.5u
X43 a_45212_n20052 a_45124_n20008 VSS.t2106 VSS.t2105 nfet_06v0 ad=0.3608p pd=2.52u as=0.3608p ps=2.52u w=0.82u l=1u
X44 VDD.t4308 a_31772_n18484 a_31684_n18440 VDD.t4307 pfet_06v0 ad=0.5368p pd=3.32u as=0.5368p ps=3.32u w=1.22u l=1u
X45 VDD.t1165 a_34860_n3189 a_34756_n3140 VDD.t1164 pfet_06v0 ad=0.45p pd=2.02u as=0.2028p ps=1.3u w=0.78u l=0.5u
X46 a_25237_n4327 a_24233_n3980 VSS.t1512 VSS.t1511 nfet_06v0 ad=0.3586p pd=2.51u as=0.3586p ps=2.51u w=0.815u l=0.6u
X47 a_44428_n9509 a_44340_n9412 VSS.t1260 VSS.t1259 nfet_06v0 ad=0.3608p pd=2.52u as=0.3608p ps=2.52u w=0.82u l=1u
X48 a_23564_n17700 a_28568_n16066 VSS.t1102 VSS.t1101 nfet_06v0 ad=0.1261p pd=1.005u as=0.2134p ps=1.85u w=0.485u l=0.6u
X49 a_27984_376 a_27884_332.t2 VDD.t75 VDD.t74 pfet_06v0 ad=0.1464p pd=1.46u as=0.3172p ps=1.74u w=1.22u l=0.5u
X50 a_28156_n6412.t7 a_29800_n5940.t7 VSS.t820 VSS.t819 nfet_06v0 ad=0.1118p pd=0.95u as=0.1892p ps=1.74u w=0.43u l=0.6u
X51 VSS.t99 a_11023_n12196.t20 a_11087_n12816.t19 VSS.t72 nfet_03v3 ad=0.728p pd=3.32u as=0.728p ps=3.32u w=2.8u l=0.28u
X52 VDD.t794 a_21772_n20836.t8 a_13623_n12196.t15 VDD.t793 pfet_06v0 ad=0.3782p pd=1.84u as=0.3782p ps=1.84u w=1.22u l=0.5u
X53 a_13623_n12196.t14 a_21772_n20836.t9 VDD.t796 VDD.t795 pfet_06v0 ad=0.3782p pd=1.84u as=0.3782p ps=1.84u w=1.22u l=0.5u
X54 a_28645_n13252 a_21692_n6694.t2 a_28437_n13705 VSS.t743 nfet_06v0 ad=0.1722p pd=1.24u as=0.3608p ps=2.52u w=0.82u l=0.6u
X55 a_23212_n12124 a_22904_n12080 VDD.t1930 VDD.t1929 pfet_06v0 ad=0.2424p pd=1.465u as=0.2222p ps=1.89u w=0.505u l=0.5u
X56 a_33780_n5112 a_24815_n3588.t4 a_33604_n5112 VSS.t580 nfet_06v0 ad=0.1312p pd=1.14u as=0.1148p ps=1.1u w=0.82u l=0.6u
X57 VDD.t1437 a_43980_n7941 a_43892_n7844 VDD.t1436 pfet_06v0 ad=0.5368p pd=3.32u as=0.5368p ps=3.32u w=1.22u l=1u
X58 a_30696_n704 a_29856_n1121 a_30408_n1104 VSS.t958 nfet_06v0 ad=43.199997f pd=0.6u as=93.59999f ps=0.88u w=0.36u l=0.6u
X59 VDD.t1654 a_43980_n4805 a_43892_n4708 VDD.t1653 pfet_06v0 ad=0.5368p pd=3.32u as=0.5368p ps=3.32u w=1.22u l=1u
X60 a_26736_n364 a_21692_n5468.t16 VSS.t372 VSS.t371 nfet_06v0 ad=0.1782p pd=1.69u as=0.1053p ps=0.925u w=0.405u l=0.6u
X61 VSS.t3 a_45648_1564.t8 EOC.t7 VSS.t2 nfet_06v0 ad=0.2132p pd=1.34u as=0.2132p ps=1.34u w=0.82u l=0.6u
X62 VDD.t1015 a_42188_n6373 a_42100_n6276 VDD.t1014 pfet_06v0 ad=0.5368p pd=3.32u as=0.5368p ps=3.32u w=1.22u l=1u
X63 VSS.t1230 a_24681_n7116 a_24576_n6976 VSS.t1229 nfet_06v0 ad=0.1224p pd=1.04u as=94.5f ps=0.885u w=0.36u l=0.6u
X64 a_32262_n452 a_22444_332.t7 VSS.t568 VSS.t567 nfet_06v0 ad=0.3608p pd=2.52u as=0.2911p ps=1.53u w=0.82u l=0.6u
X65 a_32424_n10512 a_31460_n10116 a_32220_n10512 VSS.t1504 nfet_06v0 ad=93.59999f pd=0.88u as=93.59999f ps=0.88u w=0.36u l=0.6u
X66 a_11087_n23528.t30 a_2167_3472.t55 cap_mim_2f0_m4m5_noshield c_width=7u c_length=7u
X67 VDD.t2256 a_42188_n3237 a_42100_n3140 VDD.t2255 pfet_06v0 ad=0.5368p pd=3.32u as=0.5368p ps=3.32u w=1.22u l=1u
X68 a_42748_n9076 a_42660_n9032 VSS.t1945 VSS.t1944 nfet_06v0 ad=0.3608p pd=2.52u as=0.3608p ps=2.52u w=0.82u l=1u
X69 a_21772_n12996 a_25831_n12996 VDD.t1673 VDD.t1672 pfet_06v0 ad=0.2938p pd=1.65u as=0.4972p ps=3.14u w=1.13u l=0.5u
X70 a_33048_n7420 a_32560_n7020 a_33308_n7376 VDD.t1205 pfet_06v0 ad=0.2028p pd=1.3u as=0.2028p ps=1.3u w=0.78u l=0.5u
X71 VDD.t1046 a_35356_n16916 a_35268_n16872 VDD.t1045 pfet_06v0 ad=0.5368p pd=3.32u as=0.5368p ps=3.32u w=1.22u l=1u
X72 a_13623_n4162.t15 a_21772_1116.t4 VDD.t602 VDD.t601 pfet_06v0 ad=0.3782p pd=1.84u as=0.3782p ps=1.84u w=1.22u l=0.5u
X73 VDD.t4406 a_22588_n20052 a_22500_n20008 VDD.t4405 pfet_06v0 ad=0.5368p pd=3.32u as=0.5368p ps=3.32u w=1.22u l=1u
X74 a_36588_n15348 a_36500_n15304 VSS.t3586 VSS.t3585 nfet_06v0 ad=0.3608p pd=2.52u as=0.3608p ps=2.52u w=0.82u l=1u
X75 VDD.t608 a_24815_n3588.t5 a_23004_n2332 VDD.t607 pfet_06v0 ad=0.2561p pd=1.505u as=0.2561p ps=1.505u w=0.985u l=0.5u
X76 VDD.t730 a_11023_n9518.t20 a_11087_n10138.t0 VDD.t729 pfet_03v3 ad=0.728p pd=3.32u as=0.728p ps=3.32u w=2.8u l=0.28u
D1 VSS.t609 a_23072_n13432.t8 diode_nd2ps_06v0 pj=1.86u area=0.2052p
X77 VSS.t570 a_22444_332.t8 a_33252_n1192 VSS.t569 nfet_06v0 ad=0.2911p pd=1.53u as=0.3608p ps=2.52u w=0.82u l=0.6u
X78 VSS.t547 a_29920_n3900.t2 a_24815_n3588.t0 VSS.t546 nfet_06v0 ad=0.2112p pd=1.84u as=0.1248p ps=1u w=0.48u l=0.6u
X79 VDD.t3774 a_33116_n16916 a_33028_n16872 VDD.t3773 pfet_06v0 ad=0.5368p pd=3.32u as=0.5368p ps=3.32u w=1.22u l=1u
X80 a_27605_n8456 a_27485_n8500 a_26861_n8567 VSS.t1241 nfet_06v0 ad=43.199997f pd=0.6u as=0.369p ps=2.77u w=0.36u l=0.6u
X81 a_33564_n20485 a_33476_n20388 VSS.t2916 VSS.t2915 nfet_06v0 ad=0.3608p pd=2.52u as=0.3608p ps=2.52u w=0.82u l=1u
X82 a_34348_n15348 a_34260_n15304 VSS.t956 VSS.t955 nfet_06v0 ad=0.3608p pd=2.52u as=0.3608p ps=2.52u w=0.82u l=1u
X83 VDD.t542 a_21772_n3588.t4 a_13623_n20230.t15 VDD.t541 pfet_06v0 ad=0.3782p pd=1.84u as=0.3782p ps=1.84u w=1.22u l=0.5u
X84 a_34552_n3140 a_34000_n3140 a_34348_n3140 VDD.t1360 pfet_06v0 ad=0.2028p pd=1.3u as=0.2028p ps=1.3u w=0.78u l=0.5u
X85 a_21772_n8292.t7 a_23564_n8292 VDD.t1983 VDD.t1982 pfet_06v0 ad=0.3782p pd=1.84u as=0.3782p ps=1.84u w=1.22u l=0.5u
X86 a_34232_n2272 a_32432_n2689 a_33292_n2716 VSS.t1849 nfet_06v0 ad=0.2007p pd=1.475u as=0.2007p ps=1.475u w=0.36u l=0.6u
X87 VDD.t1215 a_40508_n9076 a_40420_n9032 VDD.t1214 pfet_06v0 ad=0.5368p pd=3.32u as=0.5368p ps=3.32u w=1.22u l=1u
X88 a_32444_n20485 a_32356_n20388 VSS.t2192 VSS.t2191 nfet_06v0 ad=0.3608p pd=2.52u as=0.3608p ps=2.52u w=0.82u l=1u
X89 VDD.t2416 a_31451_n7508 a_25020_n8200.t1 VDD.t2415 pfet_06v0 ad=0.5346p pd=3.31u as=0.5346p ps=3.31u w=1.215u l=0.5u
X90 a_47564_n4805 a_47476_n4708 VSS.t1913 VSS.t1912 nfet_06v0 ad=0.3608p pd=2.52u as=0.3608p ps=2.52u w=0.82u l=1u
X91 a_35356_n20052 a_35268_n20008 VSS.t1104 VSS.t1103 nfet_06v0 ad=0.3608p pd=2.52u as=0.3608p ps=2.52u w=0.82u l=1u
X92 VDD.t1937 a_35244_n15348 a_35156_n15304 VDD.t1935 pfet_06v0 ad=0.5368p pd=3.32u as=0.5368p ps=3.32u w=1.22u l=1u
X93 VSS.t41 a_4001_4292.t3 a_10778_2852.t0 VSS.t40 nfet_03v3 ad=0.728p pd=3.32u as=0.728p ps=3.32u w=2.8u l=0.28u
X94 a_30204_n20485 a_30116_n20388 VSS.t1224 VSS.t1223 nfet_06v0 ad=0.3608p pd=2.52u as=0.3608p ps=2.52u w=0.82u l=1u
X95 a_11087_n15494.t26 a_11023_n14874.t21 VDD.t472 VDD.t471 pfet_03v3 ad=0.728p pd=3.32u as=0.728p ps=3.32u w=2.8u l=0.28u
X96 a_34708_n5896.t7 a_33776_n5896.t7 VSS.t25 VSS.t24 nfet_06v0 ad=0.1118p pd=0.95u as=0.1118p ps=0.95u w=0.43u l=0.6u
X97 a_30324_n10600 a_29076_n8292.t4 a_30136_n10600 VDD.t377 pfet_06v0 ad=0.1456p pd=1.08u as=0.2464p ps=2u w=0.56u l=0.5u
X98 VDD.t3579 a_24220_n15260 a_24116_n15216 VDD.t3578 pfet_06v0 ad=0.45p pd=2.02u as=0.2028p ps=1.3u w=0.78u l=0.5u
X99 a_21996_332.t0 a_27884_332.t3 VDD.t77 VDD.t76 pfet_06v0 ad=0.2938p pd=1.65u as=0.4972p ps=3.14u w=1.13u l=0.5u
X100 a_33116_n20052 a_33028_n20008 VSS.t1149 VSS.t1148 nfet_06v0 ad=0.3608p pd=2.52u as=0.3608p ps=2.52u w=0.82u l=1u
X101 a_39500_n3237 a_39412_n3140 VSS.t4248 VSS.t4247 nfet_06v0 ad=0.3608p pd=2.52u as=0.3608p ps=2.52u w=0.82u l=1u
X102 a_27190_n5112 a_26358_n4618 a_27022_n5112 VSS.t1293 nfet_06v0 ad=0.369p pd=2.77u as=43.199997f ps=0.6u w=0.36u l=0.6u
X103 VSS.t611 a_23072_n13432.t9 a_23024_n10112 VSS.t610 nfet_06v0 ad=0.2016p pd=1.48u as=43.199997f ps=0.6u w=0.36u l=0.6u
X104 VDD.t3762 a_33004_n15348 a_32916_n15304 VDD.t3761 pfet_06v0 ad=0.5368p pd=3.32u as=0.5368p ps=3.32u w=1.22u l=1u
X105 VSS.t1858 a_31965_n8292 a_32085_n8248 VSS.t1857 nfet_06v0 ad=93.59999f pd=0.88u as=43.199997f ps=0.6u w=0.36u l=0.6u
X106 a_46220_n12645 a_46132_n12548 VSS.t962 VSS.t961 nfet_06v0 ad=0.3608p pd=2.52u as=0.3608p ps=2.52u w=0.82u l=1u
X107 VDD.t434 a_11023_n17552.t21 a_11087_n18172.t19 VDD.t433 pfet_03v3 ad=0.728p pd=3.32u as=0.728p ps=3.32u w=2.8u l=0.28u
X108 a_10712_4516.t0 a_3935_4156.t3 VSS.t340 VSS.t339 nfet_03v3 ad=0.728p pd=3.32u as=1.708p ps=6.82u w=2.8u l=0.28u
X109 OUT[1].t15 a_33216_1944.t8 VDD.t359 VDD.t358 pfet_06v0 ad=0.3782p pd=1.84u as=0.3782p ps=1.84u w=1.22u l=0.5u
X110 VSS.t435 a_21772_n8292.t9 a_13623_n17552.t6 VSS.t434 nfet_06v0 ad=0.2132p pd=1.34u as=0.2132p ps=1.34u w=0.82u l=0.6u
X111 a_26172_n18484 a_26084_n18440 VSS.t2575 VSS.t2574 nfet_06v0 ad=0.3608p pd=2.52u as=0.3608p ps=2.52u w=0.82u l=1u
X112 a_11087_n18172.t18 a_11023_n17552.t22 VDD.t436 VDD.t435 pfet_03v3 ad=0.728p pd=3.32u as=1.82p ps=6.9u w=2.8u l=0.28u
X113 VDD.t1283 a_34895_n1192 a_35351_n1170 VDD.t1282 pfet_06v0 ad=0.379p pd=2.37u as=61.199993f ps=0.7u w=0.36u l=0.5u
X114 a_21772_n11428.t7 a_23564_n11428 VDD.t1928 VDD.t1927 pfet_06v0 ad=0.3782p pd=1.84u as=0.3782p ps=1.84u w=1.22u l=0.5u
X115 a_25472_n14816 a_23360_n15233 a_25160_n14816 VDD.t2628 pfet_06v0 ad=0.1313p pd=1.025u as=0.25375p ps=1.51u w=0.505u l=0.5u
X116 a_34403_332 a_34068_n4 VDD.t1316 VDD.t1315 pfet_06v0 ad=0.3477p pd=1.79u as=0.4392p ps=1.94u w=1.22u l=0.5u
X117 a_32100_n1976 a_29076_n8292.t5 a_32308_n1976 VSS.t363 nfet_06v0 ad=0.2132p pd=1.34u as=0.2132p ps=1.34u w=0.82u l=0.6u
X118 VDD.t1566 a_35800_n3456 a_36217_n3500 VDD.t1565 pfet_06v0 ad=0.44p pd=2.88u as=0.26p ps=1.52u w=1u l=0.5u
X119 a_32856_n7376 a_32455_n7420 a_31799_n7508 VSS.t981 nfet_06v0 ad=0.2007p pd=1.475u as=0.2007p ps=1.475u w=0.36u l=0.6u
X120 VDD.t2879 a_47564_n11077 a_47476_n10980 VDD.t2878 pfet_06v0 ad=0.5368p pd=3.32u as=0.5368p ps=3.32u w=1.22u l=1u
X121 a_39724_n17349 a_39636_n17252 VSS.t992 VSS.t991 nfet_06v0 ad=0.3608p pd=2.52u as=0.3608p ps=2.52u w=0.82u l=1u
X122 a_27301_n16388 a_21692_n6694.t3 VSS.t745 VSS.t744 nfet_06v0 ad=0.1312p pd=1.14u as=0.3608p ps=2.52u w=0.82u l=0.6u
X123 a_31548_n10172.t7 a_33496_n8222.t7 VSS.t1664 VSS.t1663 nfet_06v0 ad=0.1118p pd=0.95u as=0.1118p ps=0.95u w=0.43u l=0.6u
X124 a_39724_n14213 a_39636_n14116 VSS.t1514 VSS.t1513 nfet_06v0 ad=0.3608p pd=2.52u as=0.3608p ps=2.52u w=0.82u l=1u
X125 OUT[5].t6 a_44640_1944.t9 VSS.t228 VSS.t227 nfet_06v0 ad=0.2132p pd=1.34u as=0.2132p ps=1.34u w=0.82u l=0.6u
X126 VDD.t1005 a_47900_n1236 a_47812_n1192 VDD.t1004 pfet_06v0 ad=0.5368p pd=3.32u as=0.5368p ps=3.32u w=1.22u l=1u
X127 VDD.t3004 a_40620_n5940 a_40532_n5896 VDD.t3003 pfet_06v0 ad=0.5368p pd=3.32u as=0.5368p ps=3.32u w=1.22u l=1u
X128 VDD.t1011 a_45324_n11077 a_45236_n10980 VDD.t1010 pfet_06v0 ad=0.5368p pd=3.32u as=0.5368p ps=3.32u w=1.22u l=1u
X129 VSS.t1965 a_26635_n12996 a_26547_n12951 VSS.t1964 nfet_06v0 ad=0.3586p pd=2.51u as=0.3586p ps=2.51u w=0.815u l=0.6u
X130 a_47452_n5940 a_47364_n5896 VSS.t4219 VSS.t4218 nfet_06v0 ad=0.3608p pd=2.52u as=0.3608p ps=2.52u w=0.82u l=1u
X131 a_11087_n12816.t29 a_11023_n12196.t21 VDD.t89 VDD.t88 pfet_03v3 ad=0.728p pd=3.32u as=0.728p ps=3.32u w=2.8u l=0.28u
X132 VDD.t1017 a_43196_n18484 a_43108_n18440 VDD.t1016 pfet_06v0 ad=0.5368p pd=3.32u as=0.5368p ps=3.32u w=1.22u l=1u
X133 a_31660_n17349 a_31572_n17252 VSS.t1524 VSS.t1523 nfet_06v0 ad=0.3608p pd=2.52u as=0.3608p ps=2.52u w=0.82u l=1u
X134 VDD.t2143 a_33467_1116 a_30732_332.t1 VDD.t2142 pfet_06v0 ad=0.5346p pd=3.31u as=0.5346p ps=3.31u w=1.215u l=0.5u
X135 a_25020_n11383 a_28721_n9076.t3 VSS.t425 VSS.t424 nfet_06v0 ad=0.1469p pd=1.085u as=0.2486p ps=2.01u w=0.565u l=0.6u
X136 VDD.t921 a_21772_n452.t4 a_13623_n22908.t0 VDD.t920 pfet_06v0 ad=0.3782p pd=1.84u as=0.3782p ps=1.84u w=1.22u l=0.5u
X137 VDD.t2139 a_47004_n1669 a_46916_n1572 VDD.t2098 pfet_06v0 ad=0.5368p pd=3.32u as=0.5368p ps=3.32u w=1.22u l=1u
X138 VSS.t2094 a_34652_n11391 a_34350_n10980 VSS.t2093 nfet_06v0 ad=0.2486p pd=2.01u as=0.1469p ps=1.085u w=0.565u l=0.6u
X139 a_25612_n878.t1 a_27259_804.t2 a_36709_n2276 VSS.t869 nfet_06v0 ad=0.3608p pd=2.52u as=0.1312p ps=1.14u w=0.82u l=0.6u
X140 VDD.t2498 a_31656_n704 a_32073_n844 VDD.t2497 pfet_06v0 ad=0.44p pd=2.88u as=0.26p ps=1.52u w=1u l=0.5u
X141 a_26915_n2672 a_25895_n2624 VDD.t4310 VDD.t4309 pfet_06v0 ad=0.101p pd=0.905u as=0.3975p ps=2.185u w=0.505u l=0.5u
X142 a_27093_n8248 a_26973_n8292 VSS.t1637 VSS.t1636 nfet_06v0 ad=43.8f pd=0.605u as=0.282625p ps=1.87u w=0.365u l=0.6u
X143 a_44876_n9509 a_44788_n9412 VSS.t1226 VSS.t1225 nfet_06v0 ad=0.3608p pd=2.52u as=0.3608p ps=2.52u w=0.82u l=1u
X144 a_28009_n12168 a_27279_n12146 VDD.t1185 VDD.t1184 pfet_06v0 ad=0.5368p pd=3.32u as=0.379p ps=2.37u w=1.22u l=0.5u
X145 a_28868_n9387 a_28519_n10160.t2 a_28624_n9394 VDD.t891 pfet_06v0 ad=0.58035p pd=2.155u as=0.4012p ps=1.85u w=1.095u l=0.5u
X146 a_25237_n13735 a_24233_n13388 VDD.t2626 VDD.t2625 pfet_06v0 ad=0.5346p pd=3.31u as=0.5346p ps=3.31u w=1.215u l=0.5u
X147 VDD.t131 a_33496_n6659.t9 a_31628_n5940.t30 VDD.t130 pfet_06v0 ad=0.3782p pd=1.84u as=0.3782p ps=1.84u w=1.22u l=0.5u
X148 VSS.t3463 a_26643_n8292 a_23887_n5156 VSS.t3462 nfet_06v0 ad=0.282625p pd=1.87u as=0.3608p ps=2.52u w=0.82u l=0.6u
X149 a_28437_n13705 a_22220_690.t2 VDD.t2687 VDD.t2686 pfet_06v0 ad=0.2561p pd=1.505u as=0.2561p ps=1.505u w=0.985u l=0.5u
X150 VSS.t43 a_4001_4292.t4 a_10778_2852.t1 VSS.t42 nfet_03v3 ad=1.708p pd=6.82u as=0.728p ps=3.32u w=2.8u l=0.28u
X151 OUT[3].t15 a_38256_1564.t8 VDD.t161 VDD.t160 pfet_06v0 ad=0.3782p pd=1.84u as=0.3782p ps=1.84u w=1.22u l=0.5u
X152 VDD.t1054 a_46220_n17349 a_46132_n17252 VDD.t1053 pfet_06v0 ad=0.5368p pd=3.32u as=0.5368p ps=3.32u w=1.22u l=1u
X153 a_23524_464 a_23404_816 VDD.t1449 VDD.t1448 pfet_06v0 ad=0.1313p pd=1.025u as=0.22725p ps=1.91u w=0.505u l=0.5u
X154 a_43532_n3237 a_43444_n3140 VSS.t973 VSS.t972 nfet_06v0 ad=0.3608p pd=2.52u as=0.3608p ps=2.52u w=0.82u l=1u
X155 VDD.t1441 a_24684_n16432 a_22600_n12124 VDD.t1440 pfet_06v0 ad=0.5368p pd=3.32u as=0.5368p ps=3.32u w=1.22u l=0.5u
X156 a_13623_n20230.t7 a_21772_n3588.t5 VSS.t509 VSS.t508 nfet_06v0 ad=0.2132p pd=1.34u as=0.2132p ps=1.34u w=0.82u l=0.6u
X157 a_23360_n11680 a_23212_n12124 a_23192_n11680 VSS.t1154 nfet_06v0 ad=43.199997f pd=0.6u as=43.199997f ps=0.6u w=0.36u l=0.6u
X158 VDD.t4302 a_46220_n14213 a_46132_n14116 VDD.t4301 pfet_06v0 ad=0.5368p pd=3.32u as=0.5368p ps=3.32u w=1.22u l=1u
X159 a_24693_n6680 a_24573_n6724 a_23949_n6724 VSS.t1398 nfet_06v0 ad=43.199997f pd=0.6u as=0.369p ps=2.77u w=0.36u l=0.6u
X160 a_36364_n12645 a_36276_n12548 VSS.t1153 VSS.t1152 nfet_06v0 ad=0.3608p pd=2.52u as=0.3608p ps=2.52u w=0.82u l=1u
X161 VSS.t279 a_21692_n5111.t2 a_24628_n363 VSS.t278 nfet_06v0 ad=0.153p pd=1.195u as=0.1584p ps=1.6u w=0.36u l=0.6u
X162 a_30988_n18917 a_30900_n18820 VSS.t4227 VSS.t4226 nfet_06v0 ad=0.3608p pd=2.52u as=0.3608p ps=2.52u w=0.82u l=1u
X163 a_11087_n23528.t19 a_11023_n22908.t20 VDD.t178 VDD.t177 pfet_03v3 ad=0.728p pd=3.32u as=0.728p ps=3.32u w=2.8u l=0.28u
X164 a_42771_769 a_43101_841 a_43221_951 VSS.t2453 nfet_06v0 ad=0.3705p pd=2.77u as=43.8f ps=0.605u w=0.365u l=0.6u
X165 a_34124_n12645 a_34036_n12548 VSS.t4262 VSS.t4261 nfet_06v0 ad=0.3608p pd=2.52u as=0.3608p ps=2.52u w=0.82u l=1u
X166 a_29868_n17349 a_29780_n17252 VSS.t2561 VSS.t2560 nfet_06v0 ad=0.3608p pd=2.52u as=0.3608p ps=2.52u w=0.82u l=1u
D2 VSS.t571 a_22444_332.t9 diode_nd2ps_06v0 pj=1.86u area=0.2052p
X167 VSS.t383 a_10778_2852.t16 a_10712_4516.t18 VSS.t357 nfet_03v3 ad=1.708p pd=6.82u as=0.728p ps=3.32u w=2.8u l=0.28u
X168 VDD.t3601 a_36588_n11077 a_36500_n10980 VDD.t3600 pfet_06v0 ad=0.5368p pd=3.32u as=0.5368p ps=3.32u w=1.22u l=1u
X169 VSS.t283 a_24481_761.t8 a_26115_n328 VSS.t282 nfet_06v0 ad=0.1224p pd=1.04u as=0.134p ps=1.1u w=0.36u l=0.6u
X170 VDD.t1001 a_44509_n452 a_44629_168 VDD.t1000 pfet_06v0 ad=0.1116p pd=0.98u as=61.199993f ps=0.7u w=0.36u l=0.5u
X171 a_21692_n13308.t7 a_26328_n6654.t7 VSS.t1024 VSS.t1023 nfet_06v0 ad=0.1118p pd=0.95u as=0.1892p ps=1.74u w=0.43u l=0.6u
X172 a_28736_n4633.t11 a_30452_n5156.t3 VDD.t1092 VDD.t1091 pfet_06v0 ad=0.2197p pd=1.365u as=0.4056p ps=1.805u w=0.845u l=0.5u
X173 VSS.t951 a_26531_n8639 a_22712_n7420 VSS.t950 nfet_06v0 ad=0.282625p pd=1.87u as=0.3608p ps=2.52u w=0.82u l=0.6u
X174 VDD.t1163 a_40956_n9076 a_40868_n9032 VDD.t1162 pfet_06v0 ad=0.5368p pd=3.32u as=0.5368p ps=3.32u w=1.22u l=1u
X175 a_40956_n13780 a_40868_n13736 VSS.t946 VSS.t945 nfet_06v0 ad=0.3608p pd=2.52u as=0.3608p ps=2.52u w=0.82u l=1u
X176 a_26123_n1976 a_25647_n1976 VSS.t1374 VSS.t1373 nfet_06v0 ad=43.199997f pd=0.6u as=93.59999f ps=0.88u w=0.36u l=0.6u
X177 VDD.t2005 a_43084_n9509 a_42996_n9412 VDD.t2004 pfet_06v0 ad=0.5368p pd=3.32u as=0.5368p ps=3.32u w=1.22u l=1u
X178 VDD.t1549 a_25084_1564 a_33216_1944.t7 VDD.t1548 pfet_06v0 ad=0.3782p pd=1.84u as=0.3782p ps=1.84u w=1.22u l=0.5u
X179 a_46108_n7508 a_46020_n7464 VSS.t3555 VSS.t3554 nfet_06v0 ad=0.3608p pd=2.52u as=0.3608p ps=2.52u w=0.82u l=1u
X180 a_40956_n10644 a_40868_n10600 VSS.t1371 VSS.t1370 nfet_06v0 ad=0.3608p pd=2.52u as=0.3608p ps=2.52u w=0.82u l=1u
D3 a_22220_690.t3 VDD.t2688 diode_pd2nw_06v0 pj=1.86u area=0.2052p
X181 VDD.t1161 a_46220_n7941 a_46132_n7844 VDD.t1160 pfet_06v0 ad=0.5368p pd=3.32u as=0.5368p ps=3.32u w=1.22u l=1u
X182 a_31856_n11296 a_29332_n11301 a_31544_n11296 VSS.t942 nfet_06v0 ad=94.5f pd=0.885u as=0.2007p ps=1.475u w=0.36u l=0.6u
X183 a_38716_n12212 a_38628_n12168 VSS.t3395 VSS.t3394 nfet_06v0 ad=0.3608p pd=2.52u as=0.3608p ps=2.52u w=0.82u l=1u
X184 VDD.t3711 a_27736_1248 a_28153_1204 VDD.t3710 pfet_06v0 ad=0.44p pd=2.88u as=0.26p ps=1.52u w=1u l=0.5u
X185 VDD.t3262 a_27167_n10808 a_27623_n10830 VDD.t3261 pfet_06v0 ad=0.379p pd=2.37u as=61.199993f ps=0.7u w=0.36u l=0.5u
X186 VDD.t3121 a_46220_n4805 a_46132_n4708 VDD.t3120 pfet_06v0 ad=0.5368p pd=3.32u as=0.5368p ps=3.32u w=1.22u l=1u
X187 VSS.t4191 a_35456_n4628.t7 a_32108_n2332.t7 VSS.t4190 nfet_06v0 ad=0.1118p pd=0.95u as=0.1118p ps=0.95u w=0.43u l=0.6u
X188 a_23479_n5156 a_26943_n7442 VSS.t2728 VSS.t2727 nfet_06v0 ad=0.3608p pd=2.52u as=0.282625p ps=1.87u w=0.82u l=0.6u
X189 VDD.t4199 a_25940_n17606.t2 a_21772_n9860 VDD.t4198 pfet_06v0 ad=0.4972p pd=3.14u as=0.2938p ps=1.65u w=1.13u l=0.5u
X190 VDD.t2308 a_37820_n16916 a_37732_n16872 VDD.t2307 pfet_06v0 ad=0.5368p pd=3.32u as=0.5368p ps=3.32u w=1.22u l=1u
X191 a_25831_n12996 a_27526_n13714 VDD.t3419 VDD.t3418 pfet_06v0 ad=0.5368p pd=3.32u as=0.379p ps=2.37u w=1.22u l=0.5u
X192 a_32499_n3844 a_32359_n4372 a_31787_n3969 VSS.t2696 nfet_06v0 ad=0.217p pd=1.515u as=0.3586p ps=2.51u w=0.815u l=0.6u
X193 VSS.t4215 a_24752_n8292 a_22140_n6694.t0 VSS.t4214 nfet_06v0 ad=0.2344p pd=1.56u as=0.3608p ps=2.52u w=0.82u l=0.6u
X194 a_30820_n3544 a_29920_n3900.t3 a_30616_n3544 VSS.t548 nfet_06v0 ad=0.1722p pd=1.24u as=0.1722p ps=1.24u w=0.82u l=0.6u
X195 a_33497_n9032 a_32767_n9010 VDD.t2484 VDD.t2483 pfet_06v0 ad=0.5368p pd=3.32u as=0.379p ps=2.37u w=1.22u l=0.5u
X196 a_21692_n18917 a_21604_n18820 VSS.t1576 VSS.t1575 nfet_06v0 ad=0.3608p pd=2.52u as=0.3608p ps=2.52u w=0.82u l=1u
X197 VDD.t1280 a_36700_n16916 a_36612_n16872 VDD.t1279 pfet_06v0 ad=0.5368p pd=3.32u as=0.5368p ps=3.32u w=1.22u l=1u
X198 VDD.t985 a_37820_n13780 a_37732_n13736 VDD.t984 pfet_06v0 ad=0.5368p pd=3.32u as=0.5368p ps=3.32u w=1.22u l=1u
X199 VDD.t2594 a_35692_n18917 a_35604_n18820 VDD.t2593 pfet_06v0 ad=0.5368p pd=3.32u as=0.5368p ps=3.32u w=1.22u l=1u
X200 VDD.t1619 a_37484_n17349 a_37396_n17252 VDD.t1618 pfet_06v0 ad=0.5368p pd=3.32u as=0.5368p ps=3.32u w=1.22u l=1u
X201 a_30040_n3844 a_29920_n3900.t4 a_29846_n3844 VSS.t549 nfet_06v0 ad=0.1722p pd=1.24u as=0.1517p ps=1.19u w=0.82u l=0.6u
X202 a_26551_n7464 a_26095_n7464 VDD.t1155 VDD.t1154 pfet_06v0 ad=61.199993f pd=0.7u as=0.1116p ps=0.98u w=0.36u l=0.5u
X203 VDD.t2513 a_23932_n20052 a_23844_n20008 VDD.t2512 pfet_06v0 ad=0.5368p pd=3.32u as=0.5368p ps=3.32u w=1.22u l=1u
X204 a_31544_1248 a_29744_1564 a_30604_1515 VSS.t1570 nfet_06v0 ad=0.2007p pd=1.475u as=0.2007p ps=1.475u w=0.36u l=0.6u
X205 VDD.t1613 a_37484_n14213 a_37396_n14116 VDD.t1612 pfet_06v0 ad=0.5368p pd=3.32u as=0.5368p ps=3.32u w=1.22u l=1u
X206 a_32100_n1976 a_32860_n2020 VSS.t4163 VSS.t4162 nfet_06v0 ad=0.3608p pd=2.52u as=0.2132p ps=1.34u w=0.82u l=0.6u
X207 a_22672_n2214.t1 a_21916_n1975 VSS.t2444 VSS.t2443 nfet_06v0 ad=0.2569p pd=1.56u as=0.2244p ps=1.9u w=0.51u l=0.6u
X208 a_30599_n12167 a_30871_n11728 a_30787_n12167 VDD.t3591 pfet_06v0 ad=0.3159p pd=1.735u as=0.3159p ps=1.735u w=1.215u l=0.5u
X209 VDD.t309 a_24481_761.t9 a_33868_n4240 VDD.t308 pfet_06v0 ad=0.45p pd=2.02u as=0.3432p ps=2.44u w=0.78u l=0.5u
X210 VDD.t1146 a_33452_n18917 a_33364_n18820 VDD.t1145 pfet_06v0 ad=0.5368p pd=3.32u as=0.5368p ps=3.32u w=1.22u l=1u
X211 VDD.t977 a_35244_n17349 a_35156_n17252 VDD.t976 pfet_06v0 ad=0.5368p pd=3.32u as=0.5368p ps=3.32u w=1.22u l=1u
D4 a_24481_761.t10 VDD.t310 diode_pd2nw_06v0 pj=1.86u area=0.2052p
X212 VDD.t1758 a_32332_n18917 a_32244_n18820 VDD.t1757 pfet_06v0 ad=0.5368p pd=3.32u as=0.5368p ps=3.32u w=1.22u l=1u
X213 a_43084_n17349 a_42996_n17252 VSS.t3543 VSS.t3542 nfet_06v0 ad=0.3608p pd=2.52u as=0.3608p ps=2.52u w=0.82u l=1u
X214 VDD.t1428 a_35244_n14213 a_35156_n14116 VDD.t1427 pfet_06v0 ad=0.5368p pd=3.32u as=0.5368p ps=3.32u w=1.22u l=1u
X215 a_30296_1564 a_29332_1243 a_30092_1564 VSS.t1079 nfet_06v0 ad=93.59999f pd=0.88u as=93.59999f ps=0.88u w=0.36u l=0.6u
X216 a_32449_n704 a_23072_n13432.t10 VSS.t613 VSS.t612 nfet_06v0 ad=0.134p pd=1.1u as=0.1224p ps=1.04u w=0.36u l=0.6u
X217 a_30584_n1954 a_29444_n4328.t6 VDD.t1590 VDD.t1589 pfet_06v0 ad=0.4488p pd=2.92u as=0.458p ps=2.02u w=1.02u l=0.5u
X218 VDD.t4084 a_23619_n6724 a_22264_n5852 VDD.t4083 pfet_06v0 ad=0.379p pd=2.37u as=0.5368p ps=3.32u w=1.22u l=0.5u
X219 a_24609_n13248 a_23072_n13432.t11 VSS.t615 VSS.t614 nfet_06v0 ad=0.134p pd=1.1u as=0.1224p ps=1.04u w=0.36u l=0.6u
X220 VDD.t1605 a_38268_n7508 a_38180_n7464 VDD.t1604 pfet_06v0 ad=0.5368p pd=3.32u as=0.5368p ps=3.32u w=1.22u l=1u
X221 a_37820_n20052 a_37732_n20008 VSS.t1214 VSS.t1213 nfet_06v0 ad=0.3608p pd=2.52u as=0.3608p ps=2.52u w=0.82u l=1u
X222 a_43084_n14213 a_42996_n14116 VSS.t1073 VSS.t1072 nfet_06v0 ad=0.3608p pd=2.52u as=0.3608p ps=2.52u w=0.82u l=1u
X223 VDD.t1211 a_29900_760.t2 a_29812_860 VDD.t1210 pfet_06v0 ad=0.3172p pd=1.74u as=0.5368p ps=3.32u w=1.22u l=0.5u
X224 VDD.t1603 a_27988_n4328 a_31348_n1931 VDD.t1602 pfet_06v0 ad=0.4015p pd=1.92u as=0.462p ps=2.98u w=1.05u l=0.5u
X225 VSS.t698 a_13623_n4162.t16 a_11023_n4162.t9 VSS.t697 nfet_03v3 ad=0.728p pd=3.32u as=0.728p ps=3.32u w=2.8u l=0.28u
X226 VDD.t1598 a_46556_n10644 a_46468_n10600 VDD.t1597 pfet_06v0 ad=0.5368p pd=3.32u as=0.5368p ps=3.32u w=1.22u l=1u
X227 a_36700_n20052 a_36612_n20008 VSS.t1210 VSS.t1209 nfet_06v0 ad=0.3608p pd=2.52u as=0.3608p ps=2.52u w=0.82u l=1u
X228 a_42476_1515 a_42168_1564 VDD.t1130 VDD.t1129 pfet_06v0 ad=0.2424p pd=1.465u as=0.2222p ps=1.89u w=0.505u l=0.5u
X229 VDD.t2578 a_47452_n1669 a_47364_n1572 VDD.t2456 pfet_06v0 ad=0.5368p pd=3.32u as=0.5368p ps=3.32u w=1.22u l=1u
X230 a_26630_n5112 a_26154_n4536 a_26358_n4618 VSS.t4089 nfet_06v0 ad=43.199997f pd=0.6u as=0.369p ps=2.77u w=0.36u l=0.6u
X231 a_23108_n12080 a_23072_n13432.t12 VDD.t650 VDD.t649 pfet_06v0 ad=0.3432p pd=2.44u as=0.45p ps=2.02u w=0.78u l=0.5u
X232 a_26098_n9240 a_25642_n9816 VDD.t1916 VDD.t1075 pfet_06v0 ad=61.199993f pd=0.7u as=0.1116p ps=0.98u w=0.36u l=0.5u
X233 VDD.t2503 a_47452_n20052 a_47364_n20008 VDD.t2502 pfet_06v0 ad=0.5368p pd=3.32u as=0.5368p ps=3.32u w=1.22u l=1u
X234 a_11087_n20850.t30 a_2167_3472.t66 cap_mim_2f0_m4m5_noshield c_width=7u c_length=7u
X235 a_30555_n13780 a_30903_n13780 VDD.t1596 VDD.t1595 pfet_06v0 ad=0.26p pd=1.52u as=0.44p ps=2.88u w=1u l=0.5u
X236 a_27175_860 a_24815_n3588.t6 a_26991_860 VSS.t581 nfet_06v0 ad=0.1722p pd=1.24u as=0.1312p ps=1.14u w=0.82u l=0.6u
X237 a_27829_n15512 a_27709_n16132 a_27085_n16132 VDD.t1745 pfet_06v0 ad=61.199993f pd=0.7u as=0.3852p ps=2.86u w=0.36u l=0.5u
X238 VDD.t772 a_21692_n6694.t4 a_28437_n13705 VDD.t771 pfet_06v0 ad=0.2561p pd=1.505u as=0.4334p ps=2.85u w=0.985u l=0.5u
X239 a_37785_n364 a_24481_761.t11 VDD.t312 VDD.t311 pfet_06v0 ad=0.26p pd=1.52u as=0.29465p ps=1.74u w=1u l=0.5u
X240 a_25936_1564 a_25524_1243 VDD.t1424 VDD.t1423 pfet_06v0 ad=0.3806p pd=2.61u as=0.2249p ps=1.385u w=0.865u l=0.5u
X241 VDD.t1915 a_48012_n101 a_47924_n4 VDD.t1914 pfet_06v0 ad=0.5368p pd=3.32u as=0.5368p ps=3.32u w=1.22u l=1u
X242 a_41653_n1170 a_41533_n727 VDD.t1496 VDD.t1495 pfet_06v0 ad=61.199993f pd=0.7u as=0.379p ps=2.37u w=0.36u l=0.5u
X243 a_22220_n9860 a_24492_n5156 a_24388_n4708 VDD.t2573 pfet_06v0 ad=0.3782p pd=1.84u as=0.3782p ps=1.84u w=1.22u l=0.5u
X244 VDD.t2505 a_45212_n20052 a_45124_n20008 VDD.t2504 pfet_06v0 ad=0.5368p pd=3.32u as=0.5368p ps=3.32u w=1.22u l=1u
X245 a_47452_1900 a_47364_1944 VSS.t3533 VSS.t3532 nfet_06v0 ad=0.3608p pd=2.52u as=0.3608p ps=2.52u w=0.82u l=1u
X246 VSS.t1359 a_28492_332 a_28444_860 VSS.t1358 nfet_06v0 ad=0.2132p pd=1.34u as=98.399994f ps=1.06u w=0.82u l=0.6u
X247 VDD.t1122 a_39612_n4805 a_39524_n4708 VDD.t1121 pfet_06v0 ad=0.5368p pd=3.32u as=0.5368p ps=3.32u w=1.22u l=1u
X248 a_46556_n16916 a_46468_n16872 VSS.t921 VSS.t920 nfet_06v0 ad=0.3608p pd=2.52u as=0.3608p ps=2.52u w=0.82u l=1u